<routes>
        <vType id="car" vClass="passenger" length="4" maxSpeed="25.0" accel="2.6" decel="4.5"/>
        <vType id="truck" vClass="truck" length="10" maxSpeed="20.0" accel="1.2" decel="2.5"/>

        <route id="r_0" edges="3i 1o"/>
        <route id="r_1" edges="3i 4o"/>
        <route id="r_10" edges="2i 3o"/>
        <route id="r_11" edges="2i 4o"/>
        <route id="r_2" edges="3i 2o"/>
        <route id="r_3" edges="4i 3o"/>
        <route id="r_4" edges="4i 2o"/>
        <route id="r_5" edges="4i 1o"/>
        <route id="r_6" edges="1i 2o"/>
        <route id="r_7" edges="1i 4o"/>
        <route id="r_8" edges="1i 3o"/>
        <route id="r_9" edges="2i 1o"/>
    <vehicle id="SN_0" type="car" route="r_1" depart="0" color="0,0,1"/>
    <vehicle id="NS_1" type="car" route="r_11" depart="1" color="0,1,0"/>
    <vehicle id="WE_2" type="car" route="r_6" depart="2" />
    <vehicle id="SN_4" type="car" route="r_2" depart="4" color="0,0,1"/>
    <vehicle id="EW_7" type="car" route="r_4" depart="7" color= "1,0,0"/>
    <vehicle id="NS_15" type="truck" route="r_11" depart="15" color="0,1,0"/>
    <vehicle id="SN_16" type="car" route="r_2" depart="16" color="0,0,1"/>
    <vehicle id="NS_18" type="car" route="r_11" depart="18" color="0,1,0"/>
    <vehicle id="SN_18" type="car" route="r_1" depart="18" color="0,0,1"/>
    <vehicle id="SN_19" type="car" route="r_1" depart="19" color="0,0,1"/>
    <vehicle id="NS_25" type="car" route="r_10" depart="25" color="0,1,0"/>
    <vehicle id="NS_29" type="car" route="r_9" depart="29" color="0,1,0"/>
    <vehicle id="WE_34" type="car" route="r_7" depart="34" />
    <vehicle id="EW_39" type="car" route="r_3" depart="39" color= "1,0,0"/>
    <vehicle id="NS_41" type="car" route="r_9" depart="41" color="0,1,0"/>
    <vehicle id="NS_44" type="car" route="r_11" depart="44" color="0,1,0"/>
    <vehicle id="EW_45" type="car" route="r_4" depart="45" color= "1,0,0"/>
    <vehicle id="NS_45" type="car" route="r_9" depart="45" color="0,1,0"/>
    <vehicle id="SN_48" type="car" route="r_0" depart="48" color="0,0,1"/>
    <vehicle id="NS_49" type="car" route="r_9" depart="49" color="0,1,0"/>
    <vehicle id="WE_51" type="car" route="r_6" depart="51" />
    <vehicle id="NS_53" type="car" route="r_9" depart="53" color="0,1,0"/>
    <vehicle id="SN_55" type="car" route="r_1" depart="55" color="0,0,1"/>
    <vehicle id="SN_56" type="car" route="r_2" depart="56" color="0,0,1"/>
    <vehicle id="NS_58" type="car" route="r_10" depart="58" color="0,1,0"/>
    <vehicle id="SN_58" type="car" route="r_1" depart="58" color="0,0,1"/>
    <vehicle id="WE_59" type="car" route="r_8" depart="59" />
    <vehicle id="WE_61" type="car" route="r_6" depart="61" />
    <vehicle id="NS_62" type="car" route="r_10" depart="62" color="0,1,0"/>
    <vehicle id="WE_64" type="car" route="r_8" depart="64" />
    <vehicle id="WE_65" type="car" route="r_7" depart="65" />
    <vehicle id="SN_65" type="car" route="r_0" depart="65" color="0,0,1"/>
    <vehicle id="SN_67" type="car" route="r_0" depart="67" color="0,0,1"/>
    <vehicle id="NS_75" type="truck" route="r_10" depart="75" color="0,1,0"/>
    <vehicle id="NS_78" type="car" route="r_11" depart="78" color="0,1,0"/>
    <vehicle id="EW_83" type="car" route="r_4" depart="83" color= "1,0,0"/>
    <vehicle id="EW_87" type="car" route="r_4" depart="87" color= "1,0,0"/>
    <vehicle id="SN_87" type="car" route="r_0" depart="87" color="0,0,1"/>
    <vehicle id="SN_88" type="car" route="r_1" depart="88" color="0,0,1"/>
    <vehicle id="NS_89" type="truck" route="r_11" depart="89" color="0,1,0"/>
    <vehicle id="WE_92" type="car" route="r_7" depart="92" />
    <vehicle id="SN_93" type="car" route="r_0" depart="93" color="0,0,1"/>
    <vehicle id="EW_94" type="car" route="r_4" depart="94" color= "1,0,0"/>
    <vehicle id="NS_94" type="truck" route="r_11" depart="94" color="0,1,0"/>
    <vehicle id="NS_97" type="car" route="r_10" depart="97" color="0,1,0"/>
    <vehicle id="SN_97" type="truck" route="r_1" depart="97" color="0,0,1"/>
    <vehicle id="WE_98" type="car" route="r_8" depart="98" />
    <vehicle id="EW_100" type="car" route="r_4" depart="100" color= "1,0,0"/>
    <vehicle id="EW_101" type="truck" route="r_3" depart="101" color= "1,0,0"/>
    <vehicle id="NS_105" type="car" route="r_11" depart="105" color="0,1,0"/>
    <vehicle id="NS_106" type="car" route="r_9" depart="106" color="0,1,0"/>
    <vehicle id="SN_106" type="car" route="r_2" depart="106" color="0,0,1"/>
    <vehicle id="WE_110" type="car" route="r_7" depart="110" />
    <vehicle id="SN_110" type="car" route="r_1" depart="110" color="0,0,1"/>
    <vehicle id="EW_112" type="car" route="r_4" depart="112" color= "1,0,0"/>
    <vehicle id="SN_112" type="car" route="r_2" depart="112" color="0,0,1"/>
    <vehicle id="WE_114" type="car" route="r_8" depart="114" />
    <vehicle id="EW_114" type="car" route="r_4" depart="114" color= "1,0,0"/>
    <vehicle id="WE_115" type="car" route="r_8" depart="115" />
    <vehicle id="EW_115" type="car" route="r_5" depart="115" color= "1,0,0"/>
    <vehicle id="EW_117" type="car" route="r_4" depart="117" color= "1,0,0"/>
    <vehicle id="SN_118" type="car" route="r_1" depart="118" color="0,0,1"/>
    <vehicle id="WE_119" type="car" route="r_8" depart="119" />
    <vehicle id="EW_119" type="car" route="r_5" depart="119" color= "1,0,0"/>
    <vehicle id="WE_121" type="car" route="r_8" depart="121" />
    <vehicle id="SN_122" type="truck" route="r_0" depart="122" color="0,0,1"/>
    <vehicle id="NS_123" type="car" route="r_10" depart="123" color="0,1,0"/>
    <vehicle id="SN_123" type="car" route="r_0" depart="123" color="0,0,1"/>
    <vehicle id="NS_124" type="car" route="r_11" depart="124" color="0,1,0"/>
    <vehicle id="NS_128" type="car" route="r_10" depart="128" color="0,1,0"/>
    <vehicle id="SN_128" type="car" route="r_1" depart="128" color="0,0,1"/>
    <vehicle id="EW_132" type="car" route="r_4" depart="132" color= "1,0,0"/>
    <vehicle id="WE_134" type="car" route="r_8" depart="134" />
    <vehicle id="EW_135" type="car" route="r_3" depart="135" color= "1,0,0"/>
    <vehicle id="EW_136" type="car" route="r_4" depart="136" color= "1,0,0"/>
    <vehicle id="EW_138" type="car" route="r_3" depart="138" color= "1,0,0"/>
    <vehicle id="WE_143" type="car" route="r_7" depart="143" />
    <vehicle id="NS_146" type="car" route="r_9" depart="146" color="0,1,0"/>
    <vehicle id="WE_149" type="car" route="r_7" depart="149" />
    <vehicle id="NS_151" type="car" route="r_9" depart="151" color="0,1,0"/>
    <vehicle id="SN_160" type="car" route="r_1" depart="160" color="0,0,1"/>
    <vehicle id="WE_161" type="car" route="r_7" depart="161" />
    <vehicle id="EW_164" type="car" route="r_3" depart="164" color= "1,0,0"/>
    <vehicle id="SN_164" type="car" route="r_0" depart="164" color="0,0,1"/>
    <vehicle id="WE_167" type="car" route="r_8" depart="167" />
    <vehicle id="SN_167" type="car" route="r_2" depart="167" color="0,0,1"/>
    <vehicle id="NS_168" type="car" route="r_9" depart="168" color="0,1,0"/>
    <vehicle id="NS_171" type="truck" route="r_10" depart="171" color="0,1,0"/>
    <vehicle id="SN_171" type="car" route="r_1" depart="171" color="0,0,1"/>
    <vehicle id="EW_172" type="car" route="r_4" depart="172" color= "1,0,0"/>
    <vehicle id="WE_173" type="car" route="r_8" depart="173" />
    <vehicle id="WE_175" type="car" route="r_8" depart="175" />
    <vehicle id="EW_176" type="car" route="r_4" depart="176" color= "1,0,0"/>
    <vehicle id="NS_176" type="car" route="r_10" depart="176" color="0,1,0"/>
    <vehicle id="NS_182" type="car" route="r_10" depart="182" color="0,1,0"/>
    <vehicle id="SN_183" type="car" route="r_0" depart="183" color="0,0,1"/>
    <vehicle id="WE_185" type="car" route="r_6" depart="185" />
    <vehicle id="WE_192" type="car" route="r_6" depart="192" />
    <vehicle id="NS_192" type="car" route="r_10" depart="192" color="0,1,0"/>
    <vehicle id="EW_193" type="car" route="r_5" depart="193" color= "1,0,0"/>
    <vehicle id="EW_194" type="car" route="r_4" depart="194" color= "1,0,0"/>
    <vehicle id="NS_202" type="car" route="r_11" depart="202" color="0,1,0"/>
    <vehicle id="SN_202" type="car" route="r_0" depart="202" color="0,0,1"/>
    <vehicle id="EW_203" type="car" route="r_4" depart="203" color= "1,0,0"/>
    <vehicle id="WE_205" type="car" route="r_8" depart="205" />
    <vehicle id="EW_206" type="car" route="r_5" depart="206" color= "1,0,0"/>
    <vehicle id="EW_208" type="car" route="r_4" depart="208" color= "1,0,0"/>
    <vehicle id="WE_212" type="car" route="r_6" depart="212" />
    <vehicle id="EW_213" type="car" route="r_4" depart="213" color= "1,0,0"/>
    <vehicle id="SN_213" type="car" route="r_1" depart="213" color="0,0,1"/>
    <vehicle id="NS_219" type="car" route="r_9" depart="219" color="0,1,0"/>
    <vehicle id="NS_220" type="car" route="r_10" depart="220" color="0,1,0"/>
    <vehicle id="NS_221" type="car" route="r_11" depart="221" color="0,1,0"/>
    <vehicle id="EW_224" type="car" route="r_4" depart="224" color= "1,0,0"/>
    <vehicle id="NS_226" type="car" route="r_11" depart="226" color="0,1,0"/>
    <vehicle id="EW_227" type="car" route="r_4" depart="227" color= "1,0,0"/>
    <vehicle id="WE_233" type="car" route="r_8" depart="233" />
    <vehicle id="WE_235" type="car" route="r_6" depart="235" />
    <vehicle id="WE_237" type="car" route="r_8" depart="237" />
    <vehicle id="NS_244" type="car" route="r_11" depart="244" color="0,1,0"/>
    <vehicle id="EW_252" type="car" route="r_4" depart="252" color= "1,0,0"/>
    <vehicle id="NS_253" type="truck" route="r_11" depart="253" color="0,1,0"/>
    <vehicle id="WE_255" type="car" route="r_6" depart="255" />
    <vehicle id="NS_260" type="car" route="r_10" depart="260" color="0,1,0"/>
    <vehicle id="WE_264" type="truck" route="r_8" depart="264" />
    <vehicle id="EW_264" type="car" route="r_4" depart="264" color= "1,0,0"/>
    <vehicle id="SN_264" type="car" route="r_0" depart="264" color="0,0,1"/>
    <vehicle id="SN_266" type="car" route="r_0" depart="266" color="0,0,1"/>
    <vehicle id="EW_267" type="truck" route="r_5" depart="267" color= "1,0,0"/>
    <vehicle id="NS_270" type="car" route="r_9" depart="270" color="0,1,0"/>
    <vehicle id="WE_271" type="car" route="r_6" depart="271" />
    <vehicle id="SN_271" type="car" route="r_1" depart="271" color="0,0,1"/>
    <vehicle id="EW_276" type="car" route="r_3" depart="276" color= "1,0,0"/>
    <vehicle id="NS_279" type="car" route="r_10" depart="279" color="0,1,0"/>
    <vehicle id="NS_281" type="car" route="r_11" depart="281" color="0,1,0"/>
    <vehicle id="EW_286" type="car" route="r_5" depart="286" color= "1,0,0"/>
    <vehicle id="NS_288" type="car" route="r_9" depart="288" color="0,1,0"/>
    <vehicle id="NS_289" type="car" route="r_10" depart="289" color="0,1,0"/>
    <vehicle id="NS_300" type="car" route="r_9" depart="300" color="0,1,0"/>
    <vehicle id="NS_303" type="truck" route="r_10" depart="303" color="0,1,0"/>
    <vehicle id="SN_306" type="car" route="r_0" depart="306" color="0,0,1"/>
    <vehicle id="EW_311" type="car" route="r_3" depart="311" color= "1,0,0"/>
    <vehicle id="SN_313" type="truck" route="r_2" depart="313" color="0,0,1"/>
    <vehicle id="EW_315" type="car" route="r_5" depart="315" color= "1,0,0"/>
    <vehicle id="SN_316" type="car" route="r_0" depart="316" color="0,0,1"/>
    <vehicle id="NS_320" type="car" route="r_10" depart="320" color="0,1,0"/>
    <vehicle id="NS_321" type="car" route="r_10" depart="321" color="0,1,0"/>
    <vehicle id="WE_322" type="car" route="r_8" depart="322" />
    <vehicle id="EW_323" type="car" route="r_4" depart="323" color= "1,0,0"/>
    <vehicle id="EW_326" type="car" route="r_3" depart="326" color= "1,0,0"/>
    <vehicle id="NS_326" type="car" route="r_9" depart="326" color="0,1,0"/>
    <vehicle id="EW_327" type="car" route="r_3" depart="327" color= "1,0,0"/>
    <vehicle id="NS_327" type="car" route="r_11" depart="327" color="0,1,0"/>
    <vehicle id="EW_330" type="car" route="r_4" depart="330" color= "1,0,0"/>
    <vehicle id="WE_334" type="car" route="r_8" depart="334" />
    <vehicle id="EW_334" type="car" route="r_5" depart="334" color= "1,0,0"/>
    <vehicle id="EW_335" type="car" route="r_5" depart="335" color= "1,0,0"/>
    <vehicle id="SN_336" type="car" route="r_0" depart="336" color="0,0,1"/>
    <vehicle id="NS_340" type="car" route="r_11" depart="340" color="0,1,0"/>
    <vehicle id="SN_342" type="car" route="r_2" depart="342" color="0,0,1"/>
    <vehicle id="SN_344" type="car" route="r_1" depart="344" color="0,0,1"/>
    <vehicle id="WE_346" type="car" route="r_8" depart="346" />
    <vehicle id="EW_348" type="car" route="r_5" depart="348" color= "1,0,0"/>
    <vehicle id="EW_352" type="car" route="r_5" depart="352" color= "1,0,0"/>
    <vehicle id="SN_352" type="car" route="r_0" depart="352" color="0,0,1"/>
    <vehicle id="WE_354" type="car" route="r_6" depart="354" />
    <vehicle id="EW_355" type="car" route="r_5" depart="355" color= "1,0,0"/>
    <vehicle id="EW_357" type="car" route="r_5" depart="357" color= "1,0,0"/>
    <vehicle id="SN_357" type="car" route="r_2" depart="357" color="0,0,1"/>
    <vehicle id="SN_365" type="car" route="r_2" depart="365" color="0,0,1"/>
    <vehicle id="NS_367" type="truck" route="r_10" depart="367" color="0,1,0"/>
    <vehicle id="NS_369" type="car" route="r_10" depart="369" color="0,1,0"/>
    <vehicle id="EW_370" type="car" route="r_3" depart="370" color= "1,0,0"/>
    <vehicle id="WE_371" type="car" route="r_6" depart="371" />
    <vehicle id="NS_373" type="truck" route="r_11" depart="373" color="0,1,0"/>
    <vehicle id="SN_373" type="car" route="r_0" depart="373" color="0,0,1"/>
    <vehicle id="SN_374" type="car" route="r_1" depart="374" color="0,0,1"/>
    <vehicle id="NS_377" type="car" route="r_11" depart="377" color="0,1,0"/>
    <vehicle id="NS_379" type="car" route="r_10" depart="379" color="0,1,0"/>
    <vehicle id="SN_379" type="car" route="r_0" depart="379" color="0,0,1"/>
    <vehicle id="WE_380" type="car" route="r_8" depart="380" />
    <vehicle id="NS_385" type="car" route="r_9" depart="385" color="0,1,0"/>
    <vehicle id="NS_391" type="car" route="r_9" depart="391" color="0,1,0"/>
    <vehicle id="EW_394" type="car" route="r_5" depart="394" color= "1,0,0"/>
    <vehicle id="NS_395" type="car" route="r_10" depart="395" color="0,1,0"/>
    <vehicle id="NS_396" type="car" route="r_9" depart="396" color="0,1,0"/>
    <vehicle id="SN_401" type="car" route="r_2" depart="401" color="0,0,1"/>
    <vehicle id="EW_402" type="car" route="r_5" depart="402" color= "1,0,0"/>
    <vehicle id="WE_411" type="car" route="r_6" depart="411" />
    <vehicle id="EW_416" type="car" route="r_3" depart="416" color= "1,0,0"/>
    <vehicle id="WE_421" type="car" route="r_7" depart="421" />
    <vehicle id="WE_422" type="car" route="r_7" depart="422" />
    <vehicle id="NS_426" type="car" route="r_10" depart="426" color="0,1,0"/>
    <vehicle id="EW_430" type="car" route="r_4" depart="430" color= "1,0,0"/>
    <vehicle id="NS_430" type="car" route="r_11" depart="430" color="0,1,0"/>
    <vehicle id="EW_432" type="car" route="r_3" depart="432" color= "1,0,0"/>
    <vehicle id="NS_436" type="car" route="r_10" depart="436" color="0,1,0"/>
    <vehicle id="WE_441" type="car" route="r_8" depart="441" />
    <vehicle id="WE_445" type="car" route="r_8" depart="445" />
    <vehicle id="NS_449" type="car" route="r_11" depart="449" color="0,1,0"/>
    <vehicle id="WE_451" type="car" route="r_8" depart="451" />
    <vehicle id="WE_456" type="car" route="r_7" depart="456" />
    <vehicle id="WE_459" type="car" route="r_8" depart="459" />
    <vehicle id="EW_461" type="car" route="r_5" depart="461" color= "1,0,0"/>
    <vehicle id="NS_469" type="truck" route="r_11" depart="469" color="0,1,0"/>
    <vehicle id="WE_480" type="car" route="r_7" depart="480" />
    <vehicle id="NS_481" type="car" route="r_10" depart="481" color="0,1,0"/>
    <vehicle id="WE_482" type="car" route="r_6" depart="482" />
    <vehicle id="NS_483" type="car" route="r_11" depart="483" color="0,1,0"/>
    <vehicle id="NS_487" type="car" route="r_10" depart="487" color="0,1,0"/>
    <vehicle id="WE_490" type="car" route="r_6" depart="490" />
    <vehicle id="NS_490" type="car" route="r_11" depart="490" color="0,1,0"/>
    <vehicle id="WE_491" type="car" route="r_8" depart="491" />
    <vehicle id="NS_491" type="car" route="r_10" depart="491" color="0,1,0"/>
    <vehicle id="SN_492" type="car" route="r_0" depart="492" color="0,0,1"/>
    <vehicle id="EW_500" type="car" route="r_4" depart="500" color= "1,0,0"/>
    <vehicle id="NS_503" type="car" route="r_10" depart="503" color="0,1,0"/>
    <vehicle id="NS_504" type="car" route="r_10" depart="504" color="0,1,0"/>
    <vehicle id="SN_504" type="car" route="r_1" depart="504" color="0,0,1"/>
    <vehicle id="SN_506" type="truck" route="r_0" depart="506" color="0,0,1"/>
    <vehicle id="SN_518" type="car" route="r_1" depart="518" color="0,0,1"/>
    <vehicle id="EW_520" type="car" route="r_3" depart="520" color= "1,0,0"/>
    <vehicle id="EW_524" type="car" route="r_4" depart="524" color= "1,0,0"/>
    <vehicle id="NS_525" type="car" route="r_9" depart="525" color="0,1,0"/>
    <vehicle id="NS_528" type="car" route="r_9" depart="528" color="0,1,0"/>
    <vehicle id="SN_530" type="car" route="r_1" depart="530" color="0,0,1"/>
    <vehicle id="NS_531" type="car" route="r_10" depart="531" color="0,1,0"/>
    <vehicle id="WE_535" type="truck" route="r_7" depart="535" />
    <vehicle id="EW_535" type="car" route="r_3" depart="535" color= "1,0,0"/>
    <vehicle id="SN_542" type="car" route="r_2" depart="542" color="0,0,1"/>
    <vehicle id="WE_553" type="car" route="r_6" depart="553" />
    <vehicle id="EW_557" type="car" route="r_4" depart="557" color= "1,0,0"/>
    <vehicle id="WE_558" type="car" route="r_6" depart="558" />
    <vehicle id="SN_561" type="car" route="r_0" depart="561" color="0,0,1"/>
    <vehicle id="NS_562" type="car" route="r_11" depart="562" color="0,1,0"/>
    <vehicle id="WE_563" type="truck" route="r_6" depart="563" />
    <vehicle id="NS_563" type="car" route="r_10" depart="563" color="0,1,0"/>
    <vehicle id="NS_566" type="car" route="r_10" depart="566" color="0,1,0"/>
    <vehicle id="EW_569" type="car" route="r_3" depart="569" color= "1,0,0"/>
    <vehicle id="WE_570" type="car" route="r_6" depart="570" />
    <vehicle id="SN_573" type="car" route="r_1" depart="573" color="0,0,1"/>
    <vehicle id="SN_576" type="car" route="r_0" depart="576" color="0,0,1"/>
    <vehicle id="NS_580" type="car" route="r_10" depart="580" color="0,1,0"/>
    <vehicle id="EW_581" type="car" route="r_3" depart="581" color= "1,0,0"/>
    <vehicle id="WE_582" type="car" route="r_7" depart="582" />
    <vehicle id="SN_582" type="car" route="r_1" depart="582" color="0,0,1"/>
    <vehicle id="EW_583" type="car" route="r_3" depart="583" color= "1,0,0"/>
    <vehicle id="EW_584" type="car" route="r_3" depart="584" color= "1,0,0"/>
    <vehicle id="SN_586" type="truck" route="r_1" depart="586" color="0,0,1"/>
    <vehicle id="WE_592" type="truck" route="r_8" depart="592" />
    <vehicle id="NS_595" type="car" route="r_11" depart="595" color="0,1,0"/>
    <vehicle id="WE_596" type="truck" route="r_7" depart="596" />
    <vehicle id="EW_596" type="car" route="r_3" depart="596" color= "1,0,0"/>
    <vehicle id="SN_596" type="car" route="r_2" depart="596" color="0,0,1"/>
    <vehicle id="NS_598" type="car" route="r_11" depart="598" color="0,1,0"/>
    <vehicle id="WE_602" type="car" route="r_6" depart="602" />
    <vehicle id="SN_602" type="car" route="r_0" depart="602" color="0,0,1"/>
    <vehicle id="SN_606" type="car" route="r_2" depart="606" color="0,0,1"/>
    <vehicle id="WE_607" type="truck" route="r_6" depart="607" />
    <vehicle id="WE_608" type="car" route="r_7" depart="608" />
    <vehicle id="SN_608" type="car" route="r_0" depart="608" color="0,0,1"/>
    <vehicle id="WE_610" type="car" route="r_8" depart="610" />
    <vehicle id="NS_610" type="truck" route="r_11" depart="610" color="0,1,0"/>
    <vehicle id="WE_611" type="car" route="r_7" depart="611" />
    <vehicle id="EW_611" type="car" route="r_3" depart="611" color= "1,0,0"/>
    <vehicle id="SN_613" type="car" route="r_0" depart="613" color="0,0,1"/>
    <vehicle id="WE_617" type="car" route="r_7" depart="617" />
    <vehicle id="WE_618" type="car" route="r_8" depart="618" />
    <vehicle id="SN_623" type="car" route="r_2" depart="623" color="0,0,1"/>
    <vehicle id="EW_629" type="car" route="r_4" depart="629" color= "1,0,0"/>
    <vehicle id="SN_630" type="car" route="r_0" depart="630" color="0,0,1"/>
    <vehicle id="EW_637" type="car" route="r_5" depart="637" color= "1,0,0"/>
    <vehicle id="EW_646" type="car" route="r_5" depart="646" color= "1,0,0"/>
    <vehicle id="NS_649" type="car" route="r_11" depart="649" color="0,1,0"/>
    <vehicle id="EW_664" type="truck" route="r_5" depart="664" color= "1,0,0"/>
    <vehicle id="NS_664" type="car" route="r_9" depart="664" color="0,1,0"/>
    <vehicle id="NS_666" type="truck" route="r_9" depart="666" color="0,1,0"/>
    <vehicle id="NS_667" type="car" route="r_9" depart="667" color="0,1,0"/>
    <vehicle id="SN_669" type="car" route="r_0" depart="669" color="0,0,1"/>
    <vehicle id="SN_670" type="car" route="r_1" depart="670" color="0,0,1"/>
    <vehicle id="SN_671" type="car" route="r_2" depart="671" color="0,0,1"/>
    <vehicle id="SN_677" type="car" route="r_0" depart="677" color="0,0,1"/>
    <vehicle id="NS_681" type="car" route="r_11" depart="681" color="0,1,0"/>
    <vehicle id="SN_683" type="car" route="r_0" depart="683" color="0,0,1"/>
    <vehicle id="EW_685" type="car" route="r_5" depart="685" color= "1,0,0"/>
    <vehicle id="SN_688" type="truck" route="r_0" depart="688" color="0,0,1"/>
    <vehicle id="SN_689" type="truck" route="r_1" depart="689" color="0,0,1"/>
    <vehicle id="WE_692" type="car" route="r_6" depart="692" />
    <vehicle id="WE_697" type="car" route="r_8" depart="697" />
    <vehicle id="NS_699" type="car" route="r_9" depart="699" color="0,1,0"/>
    <vehicle id="NS_702" type="car" route="r_10" depart="702" color="0,1,0"/>
    <vehicle id="SN_712" type="truck" route="r_2" depart="712" color="0,0,1"/>
    <vehicle id="EW_714" type="car" route="r_3" depart="714" color= "1,0,0"/>
    <vehicle id="SN_714" type="car" route="r_2" depart="714" color="0,0,1"/>
    <vehicle id="EW_715" type="car" route="r_4" depart="715" color= "1,0,0"/>
    <vehicle id="WE_717" type="car" route="r_8" depart="717" />
    <vehicle id="WE_722" type="car" route="r_7" depart="722" />
    <vehicle id="NS_724" type="car" route="r_11" depart="724" color="0,1,0"/>
    <vehicle id="EW_727" type="truck" route="r_4" depart="727" color= "1,0,0"/>
    <vehicle id="NS_730" type="car" route="r_11" depart="730" color="0,1,0"/>
    <vehicle id="SN_736" type="car" route="r_0" depart="736" color="0,0,1"/>
    <vehicle id="NS_738" type="truck" route="r_9" depart="738" color="0,1,0"/>
    <vehicle id="WE_744" type="car" route="r_7" depart="744" />
    <vehicle id="NS_744" type="car" route="r_11" depart="744" color="0,1,0"/>
    <vehicle id="NS_745" type="car" route="r_9" depart="745" color="0,1,0"/>
    <vehicle id="NS_747" type="car" route="r_10" depart="747" color="0,1,0"/>
    <vehicle id="EW_750" type="car" route="r_5" depart="750" color= "1,0,0"/>
    <vehicle id="NS_755" type="car" route="r_11" depart="755" color="0,1,0"/>
    <vehicle id="WE_765" type="car" route="r_6" depart="765" />
    <vehicle id="SN_765" type="car" route="r_2" depart="765" color="0,0,1"/>
    <vehicle id="SN_769" type="truck" route="r_2" depart="769" color="0,0,1"/>
    <vehicle id="SN_770" type="car" route="r_2" depart="770" color="0,0,1"/>
    <vehicle id="EW_771" type="car" route="r_3" depart="771" color= "1,0,0"/>
    <vehicle id="SN_773" type="truck" route="r_2" depart="773" color="0,0,1"/>
    <vehicle id="WE_774" type="car" route="r_7" depart="774" />
    <vehicle id="SN_776" type="car" route="r_0" depart="776" color="0,0,1"/>
    <vehicle id="EW_781" type="truck" route="r_4" depart="781" color= "1,0,0"/>
    <vehicle id="EW_782" type="truck" route="r_3" depart="782" color= "1,0,0"/>
    <vehicle id="SN_782" type="car" route="r_0" depart="782" color="0,0,1"/>
    <vehicle id="NS_785" type="car" route="r_10" depart="785" color="0,1,0"/>
    <vehicle id="NS_789" type="car" route="r_11" depart="789" color="0,1,0"/>
    <vehicle id="SN_793" type="car" route="r_2" depart="793" color="0,0,1"/>
    <vehicle id="EW_794" type="car" route="r_3" depart="794" color= "1,0,0"/>
    <vehicle id="NS_794" type="car" route="r_9" depart="794" color="0,1,0"/>
    <vehicle id="NS_795" type="car" route="r_10" depart="795" color="0,1,0"/>
    <vehicle id="NS_796" type="car" route="r_11" depart="796" color="0,1,0"/>
    <vehicle id="SN_800" type="car" route="r_2" depart="800" color="0,0,1"/>
    <vehicle id="SN_804" type="car" route="r_0" depart="804" color="0,0,1"/>
    <vehicle id="WE_809" type="car" route="r_7" depart="809" />
    <vehicle id="WE_813" type="car" route="r_7" depart="813" />
    <vehicle id="SN_813" type="car" route="r_0" depart="813" color="0,0,1"/>
    <vehicle id="SN_815" type="car" route="r_0" depart="815" color="0,0,1"/>
    <vehicle id="EW_816" type="car" route="r_4" depart="816" color= "1,0,0"/>
    <vehicle id="EW_817" type="car" route="r_5" depart="817" color= "1,0,0"/>
    <vehicle id="SN_827" type="car" route="r_0" depart="827" color="0,0,1"/>
    <vehicle id="SN_828" type="car" route="r_0" depart="828" color="0,0,1"/>
    <vehicle id="WE_830" type="car" route="r_7" depart="830" />
    <vehicle id="WE_835" type="car" route="r_7" depart="835" />
    <vehicle id="WE_838" type="car" route="r_6" depart="838" />
    <vehicle id="WE_839" type="car" route="r_7" depart="839" />
    <vehicle id="EW_841" type="car" route="r_5" depart="841" color= "1,0,0"/>
    <vehicle id="SN_841" type="car" route="r_2" depart="841" color="0,0,1"/>
    <vehicle id="WE_844" type="car" route="r_8" depart="844" />
    <vehicle id="EW_847" type="car" route="r_3" depart="847" color= "1,0,0"/>
    <vehicle id="WE_848" type="car" route="r_6" depart="848" />
    <vehicle id="NS_853" type="car" route="r_11" depart="853" color="0,1,0"/>
    <vehicle id="EW_858" type="car" route="r_5" depart="858" color= "1,0,0"/>
    <vehicle id="EW_863" type="car" route="r_3" depart="863" color= "1,0,0"/>
    <vehicle id="NS_863" type="car" route="r_9" depart="863" color="0,1,0"/>
    <vehicle id="SN_864" type="car" route="r_0" depart="864" color="0,0,1"/>
    <vehicle id="NS_873" type="car" route="r_10" depart="873" color="0,1,0"/>
    <vehicle id="SN_876" type="car" route="r_0" depart="876" color="0,0,1"/>
    <vehicle id="WE_877" type="car" route="r_6" depart="877" />
    <vehicle id="WE_878" type="car" route="r_8" depart="878" />
    <vehicle id="EW_882" type="car" route="r_3" depart="882" color= "1,0,0"/>
    <vehicle id="SN_887" type="truck" route="r_0" depart="887" color="0,0,1"/>
    <vehicle id="SN_893" type="car" route="r_0" depart="893" color="0,0,1"/>
    <vehicle id="WE_895" type="car" route="r_6" depart="895" />
    <vehicle id="NS_895" type="car" route="r_9" depart="895" color="0,1,0"/>
    <vehicle id="SN_895" type="car" route="r_2" depart="895" color="0,0,1"/>
    <vehicle id="WE_901" type="car" route="r_8" depart="901" />
    <vehicle id="WE_903" type="car" route="r_8" depart="903" />
    <vehicle id="EW_903" type="car" route="r_3" depart="903" color= "1,0,0"/>
    <vehicle id="SN_903" type="truck" route="r_0" depart="903" color="0,0,1"/>
    <vehicle id="SN_907" type="car" route="r_1" depart="907" color="0,0,1"/>
    <vehicle id="WE_908" type="car" route="r_8" depart="908" />
    <vehicle id="SN_909" type="car" route="r_1" depart="909" color="0,0,1"/>
    <vehicle id="EW_910" type="car" route="r_5" depart="910" color= "1,0,0"/>
    <vehicle id="SN_912" type="car" route="r_0" depart="912" color="0,0,1"/>
    <vehicle id="WE_914" type="car" route="r_6" depart="914" />
    <vehicle id="NS_918" type="car" route="r_9" depart="918" color="0,1,0"/>
    <vehicle id="EW_922" type="truck" route="r_5" depart="922" color= "1,0,0"/>
    <vehicle id="WE_926" type="car" route="r_7" depart="926" />
    <vehicle id="SN_926" type="truck" route="r_0" depart="926" color="0,0,1"/>
    <vehicle id="EW_927" type="car" route="r_3" depart="927" color= "1,0,0"/>
    <vehicle id="EW_928" type="car" route="r_4" depart="928" color= "1,0,0"/>
    <vehicle id="SN_928" type="car" route="r_1" depart="928" color="0,0,1"/>
    <vehicle id="SN_930" type="car" route="r_0" depart="930" color="0,0,1"/>
    <vehicle id="NS_933" type="car" route="r_11" depart="933" color="0,1,0"/>
    <vehicle id="NS_934" type="car" route="r_10" depart="934" color="0,1,0"/>
    <vehicle id="WE_936" type="car" route="r_6" depart="936" />
    <vehicle id="EW_936" type="car" route="r_4" depart="936" color= "1,0,0"/>
    <vehicle id="SN_939" type="car" route="r_2" depart="939" color="0,0,1"/>
    <vehicle id="EW_941" type="car" route="r_5" depart="941" color= "1,0,0"/>
    <vehicle id="WE_953" type="car" route="r_6" depart="953" />
    <vehicle id="WE_954" type="car" route="r_8" depart="954" />
    <vehicle id="EW_955" type="car" route="r_5" depart="955" color= "1,0,0"/>
    <vehicle id="NS_957" type="car" route="r_11" depart="957" color="0,1,0"/>
    <vehicle id="NS_958" type="car" route="r_9" depart="958" color="0,1,0"/>
    <vehicle id="EW_959" type="truck" route="r_4" depart="959" color= "1,0,0"/>
    <vehicle id="SN_961" type="truck" route="r_1" depart="961" color="0,0,1"/>
    <vehicle id="NS_966" type="car" route="r_9" depart="966" color="0,1,0"/>
    <vehicle id="SN_967" type="car" route="r_1" depart="967" color="0,0,1"/>
    <vehicle id="SN_971" type="car" route="r_2" depart="971" color="0,0,1"/>