<routes>
        <vType id="car" vClass="passenger" length="4" maxSpeed="25.0" accel="2.6" decel="4.5"/>
        <vType id="truck" vClass="truck" length="10" maxSpeed="20.0" accel="1.2" decel="2.5"/>

        <route id="r_0" edges="3i 1o"/>
        <route id="r_1" edges="3i 4o"/>
        <route id="r_10" edges="2i 3o"/>
        <route id="r_11" edges="2i 4o"/>
        <route id="r_2" edges="3i 2o"/>
        <route id="r_3" edges="4i 3o"/>
        <route id="r_4" edges="4i 2o"/>
        <route id="r_5" edges="4i 1o"/>
        <route id="r_6" edges="1i 2o"/>
        <route id="r_7" edges="1i 4o"/>
        <route id="r_8" edges="1i 3o"/>
        <route id="r_9" edges="2i 1o"/>
    <vehicle id="NS_1" type="car" route="r_10" depart="1" color="0,1,0"/>
    <vehicle id="WE_2" type="car" route="r_7" depart="2" />
    <vehicle id="WE_4" type="car" route="r_8" depart="4" />
    <vehicle id="NS_5" type="car" route="r_11" depart="5" color="0,1,0"/>
    <vehicle id="EW_7" type="car" route="r_3" depart="7" color= "1,0,0"/>
    <vehicle id="SN_8" type="car" route="r_2" depart="8" color="0,0,1"/>
    <vehicle id="EW_18" type="car" route="r_5" depart="18" color= "1,0,0"/>
    <vehicle id="SN_18" type="car" route="r_2" depart="18" color="0,0,1"/>
    <vehicle id="EW_19" type="car" route="r_4" depart="19" color= "1,0,0"/>
    <vehicle id="SN_19" type="car" route="r_1" depart="19" color="0,0,1"/>
    <vehicle id="NS_21" type="car" route="r_10" depart="21" color="0,1,0"/>
    <vehicle id="WE_23" type="truck" route="r_6" depart="23" />
    <vehicle id="EW_25" type="car" route="r_5" depart="25" color= "1,0,0"/>
    <vehicle id="SN_25" type="car" route="r_1" depart="25" color="0,0,1"/>
    <vehicle id="WE_26" type="car" route="r_7" depart="26" />
    <vehicle id="SN_28" type="car" route="r_1" depart="28" color="0,0,1"/>
    <vehicle id="EW_29" type="car" route="r_5" depart="29" color= "1,0,0"/>
    <vehicle id="WE_31" type="car" route="r_7" depart="31" />
    <vehicle id="NS_36" type="car" route="r_11" depart="36" color="0,1,0"/>
    <vehicle id="WE_45" type="car" route="r_6" depart="45" />
    <vehicle id="NS_45" type="car" route="r_10" depart="45" color="0,1,0"/>
    <vehicle id="EW_47" type="car" route="r_4" depart="47" color= "1,0,0"/>
    <vehicle id="WE_49" type="car" route="r_6" depart="49" />
    <vehicle id="SN_56" type="car" route="r_0" depart="56" color="0,0,1"/>
    <vehicle id="NS_61" type="car" route="r_11" depart="61" color="0,1,0"/>
    <vehicle id="WE_62" type="car" route="r_8" depart="62" />
    <vehicle id="SN_63" type="car" route="r_2" depart="63" color="0,0,1"/>
    <vehicle id="NS_65" type="car" route="r_9" depart="65" color="0,1,0"/>
    <vehicle id="WE_66" type="car" route="r_6" depart="66" />
    <vehicle id="EW_69" type="truck" route="r_5" depart="69" color= "1,0,0"/>
    <vehicle id="SN_73" type="car" route="r_2" depart="73" color="0,0,1"/>
    <vehicle id="WE_74" type="car" route="r_8" depart="74" />
    <vehicle id="EW_78" type="car" route="r_5" depart="78" color= "1,0,0"/>
    <vehicle id="WE_79" type="car" route="r_7" depart="79" />
    <vehicle id="NS_80" type="car" route="r_11" depart="80" color="0,1,0"/>
    <vehicle id="WE_81" type="car" route="r_8" depart="81" />
    <vehicle id="EW_81" type="car" route="r_4" depart="81" color= "1,0,0"/>
    <vehicle id="WE_83" type="car" route="r_8" depart="83" />
    <vehicle id="WE_84" type="car" route="r_8" depart="84" />
    <vehicle id="SN_87" type="car" route="r_1" depart="87" color="0,0,1"/>
    <vehicle id="SN_92" type="car" route="r_1" depart="92" color="0,0,1"/>
    <vehicle id="WE_93" type="truck" route="r_7" depart="93" />
    <vehicle id="EW_95" type="car" route="r_3" depart="95" color= "1,0,0"/>
    <vehicle id="EW_100" type="car" route="r_5" depart="100" color= "1,0,0"/>
    <vehicle id="WE_101" type="car" route="r_6" depart="101" />
    <vehicle id="SN_101" type="car" route="r_1" depart="101" color="0,0,1"/>
    <vehicle id="EW_105" type="car" route="r_5" depart="105" color= "1,0,0"/>
    <vehicle id="NS_106" type="car" route="r_11" depart="106" color="0,1,0"/>
    <vehicle id="WE_114" type="car" route="r_7" depart="114" />
    <vehicle id="SN_125" type="car" route="r_2" depart="125" color="0,0,1"/>
    <vehicle id="WE_126" type="car" route="r_8" depart="126" />
    <vehicle id="NS_128" type="truck" route="r_11" depart="128" color="0,1,0"/>
    <vehicle id="SN_130" type="car" route="r_0" depart="130" color="0,0,1"/>
    <vehicle id="SN_132" type="car" route="r_2" depart="132" color="0,0,1"/>
    <vehicle id="NS_135" type="car" route="r_10" depart="135" color="0,1,0"/>
    <vehicle id="SN_136" type="car" route="r_2" depart="136" color="0,0,1"/>
    <vehicle id="NS_137" type="car" route="r_10" depart="137" color="0,1,0"/>
    <vehicle id="EW_139" type="car" route="r_4" depart="139" color= "1,0,0"/>
    <vehicle id="NS_140" type="car" route="r_11" depart="140" color="0,1,0"/>
    <vehicle id="SN_141" type="car" route="r_0" depart="141" color="0,0,1"/>
    <vehicle id="NS_144" type="car" route="r_10" depart="144" color="0,1,0"/>
    <vehicle id="EW_148" type="car" route="r_5" depart="148" color= "1,0,0"/>
    <vehicle id="SN_149" type="car" route="r_2" depart="149" color="0,0,1"/>
    <vehicle id="NS_152" type="car" route="r_9" depart="152" color="0,1,0"/>
    <vehicle id="EW_153" type="car" route="r_3" depart="153" color= "1,0,0"/>
    <vehicle id="EW_154" type="car" route="r_4" depart="154" color= "1,0,0"/>
    <vehicle id="NS_159" type="car" route="r_9" depart="159" color="0,1,0"/>
    <vehicle id="NS_160" type="car" route="r_11" depart="160" color="0,1,0"/>
    <vehicle id="EW_162" type="car" route="r_4" depart="162" color= "1,0,0"/>
    <vehicle id="SN_166" type="car" route="r_1" depart="166" color="0,0,1"/>
    <vehicle id="WE_175" type="car" route="r_6" depart="175" />
    <vehicle id="WE_176" type="car" route="r_8" depart="176" />
    <vehicle id="EW_185" type="car" route="r_4" depart="185" color= "1,0,0"/>
    <vehicle id="SN_185" type="car" route="r_2" depart="185" color="0,0,1"/>
    <vehicle id="EW_189" type="car" route="r_3" depart="189" color= "1,0,0"/>
    <vehicle id="NS_190" type="car" route="r_11" depart="190" color="0,1,0"/>
    <vehicle id="EW_191" type="car" route="r_4" depart="191" color= "1,0,0"/>
    <vehicle id="NS_195" type="car" route="r_11" depart="195" color="0,1,0"/>
    <vehicle id="SN_196" type="car" route="r_0" depart="196" color="0,0,1"/>
    <vehicle id="NS_202" type="car" route="r_11" depart="202" color="0,1,0"/>
    <vehicle id="NS_205" type="car" route="r_9" depart="205" color="0,1,0"/>
    <vehicle id="SN_206" type="car" route="r_1" depart="206" color="0,0,1"/>
    <vehicle id="WE_209" type="car" route="r_7" depart="209" />
    <vehicle id="EW_209" type="car" route="r_5" depart="209" color= "1,0,0"/>
    <vehicle id="WE_214" type="car" route="r_6" depart="214" />
    <vehicle id="NS_217" type="car" route="r_9" depart="217" color="0,1,0"/>
    <vehicle id="SN_217" type="car" route="r_1" depart="217" color="0,0,1"/>
    <vehicle id="WE_218" type="car" route="r_7" depart="218" />
    <vehicle id="SN_220" type="truck" route="r_2" depart="220" color="0,0,1"/>
    <vehicle id="WE_224" type="car" route="r_8" depart="224" />
    <vehicle id="NS_228" type="car" route="r_10" depart="228" color="0,1,0"/>
    <vehicle id="SN_228" type="car" route="r_2" depart="228" color="0,0,1"/>
    <vehicle id="WE_230" type="car" route="r_8" depart="230" />
    <vehicle id="WE_231" type="car" route="r_8" depart="231" />
    <vehicle id="SN_231" type="car" route="r_1" depart="231" color="0,0,1"/>
    <vehicle id="NS_232" type="car" route="r_10" depart="232" color="0,1,0"/>
    <vehicle id="EW_234" type="car" route="r_5" depart="234" color= "1,0,0"/>
    <vehicle id="WE_235" type="car" route="r_7" depart="235" />
    <vehicle id="EW_239" type="car" route="r_5" depart="239" color= "1,0,0"/>
    <vehicle id="NS_239" type="car" route="r_9" depart="239" color="0,1,0"/>
    <vehicle id="WE_240" type="car" route="r_6" depart="240" />
    <vehicle id="WE_243" type="car" route="r_7" depart="243" />
    <vehicle id="NS_243" type="car" route="r_10" depart="243" color="0,1,0"/>
    <vehicle id="SN_244" type="car" route="r_0" depart="244" color="0,0,1"/>
    <vehicle id="NS_245" type="car" route="r_9" depart="245" color="0,1,0"/>
    <vehicle id="SN_246" type="truck" route="r_2" depart="246" color="0,0,1"/>
    <vehicle id="NS_248" type="car" route="r_11" depart="248" color="0,1,0"/>
    <vehicle id="EW_256" type="car" route="r_5" depart="256" color= "1,0,0"/>
    <vehicle id="SN_259" type="car" route="r_2" depart="259" color="0,0,1"/>
    <vehicle id="EW_265" type="car" route="r_4" depart="265" color= "1,0,0"/>
    <vehicle id="WE_267" type="car" route="r_6" depart="267" />
    <vehicle id="EW_269" type="car" route="r_5" depart="269" color= "1,0,0"/>
    <vehicle id="SN_270" type="car" route="r_0" depart="270" color="0,0,1"/>
    <vehicle id="NS_277" type="car" route="r_9" depart="277" color="0,1,0"/>
    <vehicle id="EW_278" type="car" route="r_5" depart="278" color= "1,0,0"/>
    <vehicle id="WE_280" type="car" route="r_6" depart="280" />
    <vehicle id="NS_280" type="car" route="r_9" depart="280" color="0,1,0"/>
    <vehicle id="NS_286" type="car" route="r_9" depart="286" color="0,1,0"/>
    <vehicle id="EW_287" type="car" route="r_4" depart="287" color= "1,0,0"/>
    <vehicle id="NS_287" type="car" route="r_9" depart="287" color="0,1,0"/>
    <vehicle id="NS_288" type="car" route="r_9" depart="288" color="0,1,0"/>
    <vehicle id="WE_290" type="car" route="r_8" depart="290" />
    <vehicle id="EW_292" type="car" route="r_4" depart="292" color= "1,0,0"/>
    <vehicle id="NS_300" type="car" route="r_10" depart="300" color="0,1,0"/>
    <vehicle id="WE_305" type="car" route="r_8" depart="305" />
    <vehicle id="NS_310" type="car" route="r_9" depart="310" color="0,1,0"/>
    <vehicle id="SN_310" type="car" route="r_2" depart="310" color="0,0,1"/>
    <vehicle id="NS_311" type="car" route="r_10" depart="311" color="0,1,0"/>
    <vehicle id="SN_311" type="truck" route="r_1" depart="311" color="0,0,1"/>
    <vehicle id="WE_313" type="car" route="r_8" depart="313" />
    <vehicle id="SN_315" type="car" route="r_1" depart="315" color="0,0,1"/>
    <vehicle id="WE_322" type="car" route="r_6" depart="322" />
    <vehicle id="SN_323" type="car" route="r_2" depart="323" color="0,0,1"/>
    <vehicle id="SN_325" type="car" route="r_0" depart="325" color="0,0,1"/>
    <vehicle id="NS_326" type="car" route="r_9" depart="326" color="0,1,0"/>
    <vehicle id="EW_327" type="car" route="r_4" depart="327" color= "1,0,0"/>
    <vehicle id="SN_330" type="truck" route="r_0" depart="330" color="0,0,1"/>
    <vehicle id="WE_332" type="car" route="r_7" depart="332" />
    <vehicle id="WE_333" type="car" route="r_6" depart="333" />
    <vehicle id="NS_333" type="car" route="r_9" depart="333" color="0,1,0"/>
    <vehicle id="NS_334" type="car" route="r_11" depart="334" color="0,1,0"/>
    <vehicle id="EW_338" type="car" route="r_5" depart="338" color= "1,0,0"/>
    <vehicle id="WE_339" type="car" route="r_8" depart="339" />
    <vehicle id="EW_339" type="car" route="r_5" depart="339" color= "1,0,0"/>
    <vehicle id="WE_340" type="car" route="r_8" depart="340" />
    <vehicle id="SN_340" type="car" route="r_0" depart="340" color="0,0,1"/>
    <vehicle id="WE_341" type="truck" route="r_8" depart="341" />
    <vehicle id="SN_341" type="car" route="r_1" depart="341" color="0,0,1"/>
    <vehicle id="EW_348" type="truck" route="r_5" depart="348" color= "1,0,0"/>
    <vehicle id="NS_349" type="truck" route="r_10" depart="349" color="0,1,0"/>
    <vehicle id="NS_353" type="car" route="r_9" depart="353" color="0,1,0"/>
    <vehicle id="SN_360" type="car" route="r_1" depart="360" color="0,0,1"/>
    <vehicle id="SN_365" type="car" route="r_2" depart="365" color="0,0,1"/>
    <vehicle id="SN_367" type="car" route="r_1" depart="367" color="0,0,1"/>
    <vehicle id="NS_368" type="car" route="r_10" depart="368" color="0,1,0"/>
    <vehicle id="EW_369" type="car" route="r_3" depart="369" color= "1,0,0"/>
    <vehicle id="NS_369" type="car" route="r_11" depart="369" color="0,1,0"/>
    <vehicle id="EW_373" type="car" route="r_5" depart="373" color= "1,0,0"/>
    <vehicle id="EW_375" type="car" route="r_5" depart="375" color= "1,0,0"/>
    <vehicle id="WE_379" type="car" route="r_8" depart="379" />
    <vehicle id="WE_382" type="car" route="r_6" depart="382" />
    <vehicle id="NS_382" type="car" route="r_11" depart="382" color="0,1,0"/>
    <vehicle id="EW_383" type="car" route="r_5" depart="383" color= "1,0,0"/>
    <vehicle id="NS_386" type="truck" route="r_9" depart="386" color="0,1,0"/>
    <vehicle id="EW_391" type="car" route="r_4" depart="391" color= "1,0,0"/>
    <vehicle id="NS_391" type="car" route="r_9" depart="391" color="0,1,0"/>
    <vehicle id="NS_392" type="truck" route="r_11" depart="392" color="0,1,0"/>
    <vehicle id="WE_401" type="car" route="r_6" depart="401" />
    <vehicle id="NS_408" type="car" route="r_10" depart="408" color="0,1,0"/>
    <vehicle id="NS_409" type="car" route="r_9" depart="409" color="0,1,0"/>
    <vehicle id="EW_410" type="car" route="r_4" depart="410" color= "1,0,0"/>
    <vehicle id="NS_410" type="truck" route="r_9" depart="410" color="0,1,0"/>
    <vehicle id="NS_414" type="car" route="r_10" depart="414" color="0,1,0"/>
    <vehicle id="NS_422" type="car" route="r_11" depart="422" color="0,1,0"/>
    <vehicle id="WE_425" type="car" route="r_6" depart="425" />
    <vehicle id="NS_427" type="car" route="r_9" depart="427" color="0,1,0"/>
    <vehicle id="EW_432" type="car" route="r_3" depart="432" color= "1,0,0"/>
    <vehicle id="SN_434" type="car" route="r_0" depart="434" color="0,0,1"/>
    <vehicle id="SN_436" type="car" route="r_1" depart="436" color="0,0,1"/>
    <vehicle id="SN_444" type="car" route="r_2" depart="444" color="0,0,1"/>
    <vehicle id="WE_454" type="car" route="r_6" depart="454" />
    <vehicle id="WE_455" type="car" route="r_6" depart="455" />
    <vehicle id="WE_457" type="car" route="r_8" depart="457" />
    <vehicle id="WE_461" type="car" route="r_8" depart="461" />
    <vehicle id="NS_464" type="truck" route="r_9" depart="464" color="0,1,0"/>
    <vehicle id="NS_467" type="car" route="r_9" depart="467" color="0,1,0"/>
    <vehicle id="EW_468" type="car" route="r_5" depart="468" color= "1,0,0"/>
    <vehicle id="SN_470" type="car" route="r_1" depart="470" color="0,0,1"/>
    <vehicle id="WE_473" type="car" route="r_6" depart="473" />
    <vehicle id="EW_473" type="car" route="r_5" depart="473" color= "1,0,0"/>
    <vehicle id="NS_475" type="car" route="r_10" depart="475" color="0,1,0"/>
    <vehicle id="EW_476" type="car" route="r_4" depart="476" color= "1,0,0"/>
    <vehicle id="WE_478" type="car" route="r_7" depart="478" />
    <vehicle id="EW_482" type="car" route="r_3" depart="482" color= "1,0,0"/>
    <vehicle id="SN_483" type="car" route="r_0" depart="483" color="0,0,1"/>
    <vehicle id="WE_485" type="car" route="r_7" depart="485" />
    <vehicle id="EW_487" type="car" route="r_5" depart="487" color= "1,0,0"/>
    <vehicle id="NS_488" type="car" route="r_9" depart="488" color="0,1,0"/>
    <vehicle id="WE_500" type="car" route="r_8" depart="500" />
    <vehicle id="WE_505" type="car" route="r_6" depart="505" />
    <vehicle id="NS_508" type="car" route="r_11" depart="508" color="0,1,0"/>
    <vehicle id="WE_509" type="car" route="r_8" depart="509" />
    <vehicle id="NS_509" type="car" route="r_10" depart="509" color="0,1,0"/>
    <vehicle id="NS_513" type="car" route="r_10" depart="513" color="0,1,0"/>
    <vehicle id="EW_514" type="truck" route="r_4" depart="514" color= "1,0,0"/>
    <vehicle id="NS_515" type="car" route="r_9" depart="515" color="0,1,0"/>
    <vehicle id="EW_520" type="car" route="r_4" depart="520" color= "1,0,0"/>
    <vehicle id="SN_520" type="car" route="r_1" depart="520" color="0,0,1"/>
    <vehicle id="NS_524" type="car" route="r_9" depart="524" color="0,1,0"/>
    <vehicle id="EW_527" type="car" route="r_3" depart="527" color= "1,0,0"/>
    <vehicle id="NS_529" type="car" route="r_11" depart="529" color="0,1,0"/>
    <vehicle id="NS_531" type="truck" route="r_11" depart="531" color="0,1,0"/>
    <vehicle id="NS_533" type="car" route="r_9" depart="533" color="0,1,0"/>
    <vehicle id="NS_535" type="car" route="r_10" depart="535" color="0,1,0"/>
    <vehicle id="NS_536" type="car" route="r_11" depart="536" color="0,1,0"/>
    <vehicle id="WE_547" type="car" route="r_7" depart="547" />
    <vehicle id="NS_550" type="car" route="r_10" depart="550" color="0,1,0"/>
    <vehicle id="SN_551" type="car" route="r_2" depart="551" color="0,0,1"/>
    <vehicle id="NS_552" type="car" route="r_10" depart="552" color="0,1,0"/>
    <vehicle id="EW_554" type="car" route="r_3" depart="554" color= "1,0,0"/>
    <vehicle id="WE_560" type="car" route="r_8" depart="560" />
    <vehicle id="NS_567" type="car" route="r_11" depart="567" color="0,1,0"/>
    <vehicle id="EW_572" type="car" route="r_3" depart="572" color= "1,0,0"/>
    <vehicle id="EW_573" type="car" route="r_5" depart="573" color= "1,0,0"/>
    <vehicle id="WE_576" type="car" route="r_8" depart="576" />
    <vehicle id="EW_579" type="car" route="r_4" depart="579" color= "1,0,0"/>
    <vehicle id="WE_580" type="car" route="r_8" depart="580" />
    <vehicle id="EW_581" type="car" route="r_5" depart="581" color= "1,0,0"/>
    <vehicle id="SN_582" type="car" route="r_2" depart="582" color="0,0,1"/>
    <vehicle id="WE_583" type="car" route="r_8" depart="583" />
    <vehicle id="EW_585" type="truck" route="r_5" depart="585" color= "1,0,0"/>
    <vehicle id="NS_585" type="car" route="r_11" depart="585" color="0,1,0"/>
    <vehicle id="NS_594" type="car" route="r_11" depart="594" color="0,1,0"/>
    <vehicle id="WE_595" type="car" route="r_6" depart="595" />
    <vehicle id="SN_598" type="car" route="r_2" depart="598" color="0,0,1"/>
    <vehicle id="NS_604" type="car" route="r_10" depart="604" color="0,1,0"/>
    <vehicle id="EW_605" type="car" route="r_5" depart="605" color= "1,0,0"/>
    <vehicle id="SN_609" type="car" route="r_1" depart="609" color="0,0,1"/>
    <vehicle id="SN_612" type="truck" route="r_0" depart="612" color="0,0,1"/>
    <vehicle id="NS_616" type="car" route="r_11" depart="616" color="0,1,0"/>
    <vehicle id="NS_617" type="car" route="r_11" depart="617" color="0,1,0"/>
    <vehicle id="SN_617" type="car" route="r_0" depart="617" color="0,0,1"/>
    <vehicle id="WE_619" type="car" route="r_8" depart="619" />
    <vehicle id="NS_619" type="car" route="r_9" depart="619" color="0,1,0"/>
    <vehicle id="SN_619" type="car" route="r_0" depart="619" color="0,0,1"/>
    <vehicle id="EW_620" type="truck" route="r_3" depart="620" color= "1,0,0"/>
    <vehicle id="EW_630" type="car" route="r_4" depart="630" color= "1,0,0"/>
    <vehicle id="NS_630" type="car" route="r_9" depart="630" color="0,1,0"/>
    <vehicle id="EW_631" type="car" route="r_3" depart="631" color= "1,0,0"/>
    <vehicle id="NS_633" type="car" route="r_10" depart="633" color="0,1,0"/>
    <vehicle id="WE_634" type="car" route="r_8" depart="634" />
    <vehicle id="EW_634" type="car" route="r_3" depart="634" color= "1,0,0"/>
    <vehicle id="NS_641" type="car" route="r_10" depart="641" color="0,1,0"/>
    <vehicle id="SN_644" type="car" route="r_1" depart="644" color="0,0,1"/>
    <vehicle id="WE_645" type="car" route="r_7" depart="645" />
    <vehicle id="EW_645" type="car" route="r_3" depart="645" color= "1,0,0"/>
    <vehicle id="SN_647" type="car" route="r_1" depart="647" color="0,0,1"/>
    <vehicle id="EW_655" type="car" route="r_5" depart="655" color= "1,0,0"/>
    <vehicle id="EW_660" type="car" route="r_4" depart="660" color= "1,0,0"/>
    <vehicle id="SN_661" type="car" route="r_2" depart="661" color="0,0,1"/>
    <vehicle id="NS_662" type="car" route="r_9" depart="662" color="0,1,0"/>
    <vehicle id="NS_663" type="car" route="r_10" depart="663" color="0,1,0"/>
    <vehicle id="NS_666" type="car" route="r_9" depart="666" color="0,1,0"/>
    <vehicle id="NS_670" type="car" route="r_9" depart="670" color="0,1,0"/>
    <vehicle id="WE_673" type="car" route="r_7" depart="673" />
    <vehicle id="EW_676" type="car" route="r_5" depart="676" color= "1,0,0"/>
    <vehicle id="EW_679" type="truck" route="r_5" depart="679" color= "1,0,0"/>
    <vehicle id="NS_680" type="car" route="r_11" depart="680" color="0,1,0"/>
    <vehicle id="NS_682" type="car" route="r_9" depart="682" color="0,1,0"/>
    <vehicle id="WE_683" type="car" route="r_6" depart="683" />
    <vehicle id="NS_685" type="car" route="r_10" depart="685" color="0,1,0"/>
    <vehicle id="EW_689" type="car" route="r_4" depart="689" color= "1,0,0"/>
    <vehicle id="SN_689" type="car" route="r_1" depart="689" color="0,0,1"/>
    <vehicle id="WE_691" type="car" route="r_7" depart="691" />
    <vehicle id="WE_694" type="car" route="r_7" depart="694" />
    <vehicle id="WE_695" type="truck" route="r_7" depart="695" />
    <vehicle id="WE_697" type="car" route="r_7" depart="697" />
    <vehicle id="EW_697" type="car" route="r_5" depart="697" color= "1,0,0"/>
    <vehicle id="NS_703" type="car" route="r_10" depart="703" color="0,1,0"/>
    <vehicle id="EW_706" type="car" route="r_3" depart="706" color= "1,0,0"/>
    <vehicle id="SN_706" type="car" route="r_0" depart="706" color="0,0,1"/>
    <vehicle id="WE_709" type="car" route="r_7" depart="709" />
    <vehicle id="WE_714" type="car" route="r_6" depart="714" />
    <vehicle id="SN_714" type="car" route="r_2" depart="714" color="0,0,1"/>
    <vehicle id="WE_717" type="car" route="r_6" depart="717" />
    <vehicle id="SN_720" type="car" route="r_2" depart="720" color="0,0,1"/>
    <vehicle id="NS_721" type="car" route="r_9" depart="721" color="0,1,0"/>
    <vehicle id="EW_730" type="car" route="r_5" depart="730" color= "1,0,0"/>
    <vehicle id="EW_734" type="car" route="r_3" depart="734" color= "1,0,0"/>
    <vehicle id="SN_736" type="car" route="r_0" depart="736" color="0,0,1"/>
    <vehicle id="EW_737" type="car" route="r_4" depart="737" color= "1,0,0"/>
    <vehicle id="SN_737" type="car" route="r_0" depart="737" color="0,0,1"/>
    <vehicle id="WE_738" type="car" route="r_7" depart="738" />
    <vehicle id="NS_740" type="car" route="r_9" depart="740" color="0,1,0"/>
    <vehicle id="WE_742" type="car" route="r_6" depart="742" />
    <vehicle id="SN_746" type="truck" route="r_0" depart="746" color="0,0,1"/>
    <vehicle id="EW_748" type="car" route="r_4" depart="748" color= "1,0,0"/>
    <vehicle id="EW_750" type="car" route="r_4" depart="750" color= "1,0,0"/>
    <vehicle id="SN_751" type="car" route="r_1" depart="751" color="0,0,1"/>
    <vehicle id="SN_755" type="car" route="r_1" depart="755" color="0,0,1"/>
    <vehicle id="SN_759" type="car" route="r_2" depart="759" color="0,0,1"/>
    <vehicle id="EW_760" type="car" route="r_4" depart="760" color= "1,0,0"/>
    <vehicle id="NS_761" type="car" route="r_10" depart="761" color="0,1,0"/>
    <vehicle id="WE_762" type="car" route="r_6" depart="762" />
    <vehicle id="EW_767" type="car" route="r_5" depart="767" color= "1,0,0"/>
    <vehicle id="WE_782" type="car" route="r_8" depart="782" />
    <vehicle id="SN_787" type="car" route="r_2" depart="787" color="0,0,1"/>
    <vehicle id="EW_789" type="car" route="r_3" depart="789" color= "1,0,0"/>
    <vehicle id="WE_792" type="car" route="r_6" depart="792" />
    <vehicle id="NS_792" type="car" route="r_10" depart="792" color="0,1,0"/>
    <vehicle id="WE_793" type="car" route="r_6" depart="793" />
    <vehicle id="WE_795" type="car" route="r_7" depart="795" />
    <vehicle id="EW_796" type="car" route="r_3" depart="796" color= "1,0,0"/>
    <vehicle id="SN_796" type="car" route="r_1" depart="796" color="0,0,1"/>
    <vehicle id="NS_799" type="car" route="r_10" depart="799" color="0,1,0"/>
    <vehicle id="EW_800" type="car" route="r_4" depart="800" color= "1,0,0"/>
    <vehicle id="WE_807" type="car" route="r_7" depart="807" />
    <vehicle id="WE_809" type="car" route="r_7" depart="809" />
    <vehicle id="WE_810" type="car" route="r_6" depart="810" />
    <vehicle id="SN_811" type="car" route="r_0" depart="811" color="0,0,1"/>
    <vehicle id="WE_814" type="car" route="r_6" depart="814" />
    <vehicle id="SN_815" type="car" route="r_1" depart="815" color="0,0,1"/>
    <vehicle id="EW_816" type="car" route="r_4" depart="816" color= "1,0,0"/>
    <vehicle id="EW_821" type="car" route="r_3" depart="821" color= "1,0,0"/>
    <vehicle id="EW_824" type="car" route="r_4" depart="824" color= "1,0,0"/>
    <vehicle id="EW_826" type="car" route="r_3" depart="826" color= "1,0,0"/>
    <vehicle id="EW_828" type="car" route="r_3" depart="828" color= "1,0,0"/>
    <vehicle id="NS_829" type="car" route="r_10" depart="829" color="0,1,0"/>
    <vehicle id="WE_835" type="car" route="r_6" depart="835" />
    <vehicle id="EW_835" type="car" route="r_3" depart="835" color= "1,0,0"/>
    <vehicle id="NS_838" type="car" route="r_9" depart="838" color="0,1,0"/>
    <vehicle id="EW_841" type="car" route="r_5" depart="841" color= "1,0,0"/>
    <vehicle id="SN_841" type="car" route="r_0" depart="841" color="0,0,1"/>
    <vehicle id="NS_843" type="truck" route="r_11" depart="843" color="0,1,0"/>
    <vehicle id="SN_844" type="car" route="r_1" depart="844" color="0,0,1"/>
    <vehicle id="EW_845" type="car" route="r_4" depart="845" color= "1,0,0"/>
    <vehicle id="NS_845" type="car" route="r_11" depart="845" color="0,1,0"/>
    <vehicle id="NS_850" type="car" route="r_11" depart="850" color="0,1,0"/>
    <vehicle id="SN_858" type="car" route="r_1" depart="858" color="0,0,1"/>
    <vehicle id="WE_859" type="car" route="r_7" depart="859" />
    <vehicle id="WE_861" type="car" route="r_8" depart="861" />
    <vehicle id="EW_861" type="car" route="r_5" depart="861" color= "1,0,0"/>
    <vehicle id="WE_865" type="car" route="r_6" depart="865" />
    <vehicle id="WE_868" type="car" route="r_6" depart="868" />
    <vehicle id="NS_868" type="car" route="r_11" depart="868" color="0,1,0"/>
    <vehicle id="SN_868" type="car" route="r_2" depart="868" color="0,0,1"/>
    <vehicle id="WE_869" type="car" route="r_8" depart="869" />
    <vehicle id="NS_869" type="car" route="r_9" depart="869" color="0,1,0"/>
    <vehicle id="SN_870" type="car" route="r_0" depart="870" color="0,0,1"/>
    <vehicle id="EW_871" type="car" route="r_5" depart="871" color= "1,0,0"/>
    <vehicle id="EW_873" type="car" route="r_3" depart="873" color= "1,0,0"/>
    <vehicle id="SN_875" type="car" route="r_1" depart="875" color="0,0,1"/>
    <vehicle id="SN_876" type="car" route="r_1" depart="876" color="0,0,1"/>
    <vehicle id="EW_882" type="car" route="r_4" depart="882" color= "1,0,0"/>
    <vehicle id="NS_883" type="car" route="r_10" depart="883" color="0,1,0"/>
    <vehicle id="NS_887" type="car" route="r_9" depart="887" color="0,1,0"/>
    <vehicle id="EW_890" type="car" route="r_4" depart="890" color= "1,0,0"/>
    <vehicle id="SN_894" type="car" route="r_2" depart="894" color="0,0,1"/>
    <vehicle id="EW_898" type="car" route="r_4" depart="898" color= "1,0,0"/>
    <vehicle id="WE_901" type="car" route="r_6" depart="901" />
    <vehicle id="NS_901" type="car" route="r_9" depart="901" color="0,1,0"/>
    <vehicle id="WE_904" type="car" route="r_7" depart="904" />
    <vehicle id="NS_907" type="car" route="r_9" depart="907" color="0,1,0"/>
    <vehicle id="WE_908" type="car" route="r_7" depart="908" />
    <vehicle id="NS_908" type="car" route="r_11" depart="908" color="0,1,0"/>
    <vehicle id="NS_914" type="car" route="r_11" depart="914" color="0,1,0"/>
    <vehicle id="NS_915" type="car" route="r_11" depart="915" color="0,1,0"/>
    <vehicle id="EW_926" type="car" route="r_5" depart="926" color= "1,0,0"/>
    <vehicle id="WE_931" type="truck" route="r_8" depart="931" />
    <vehicle id="SN_931" type="car" route="r_1" depart="931" color="0,0,1"/>
    <vehicle id="NS_932" type="car" route="r_11" depart="932" color="0,1,0"/>
    <vehicle id="EW_936" type="car" route="r_3" depart="936" color= "1,0,0"/>
    <vehicle id="NS_938" type="car" route="r_11" depart="938" color="0,1,0"/>
    <vehicle id="SN_939" type="car" route="r_0" depart="939" color="0,0,1"/>
    <vehicle id="EW_944" type="car" route="r_4" depart="944" color= "1,0,0"/>
    <vehicle id="WE_951" type="car" route="r_7" depart="951" />
    <vehicle id="WE_953" type="car" route="r_8" depart="953" />
    <vehicle id="WE_956" type="car" route="r_8" depart="956" />
    <vehicle id="EW_956" type="car" route="r_5" depart="956" color= "1,0,0"/>
    <vehicle id="WE_961" type="car" route="r_6" depart="961" />
    <vehicle id="WE_970" type="car" route="r_8" depart="970" />
    <vehicle id="WE_971" type="car" route="r_7" depart="971" />
    <vehicle id="SN_972" type="car" route="r_0" depart="972" color="0,0,1"/>
    <vehicle id="WE_973" type="car" route="r_7" depart="973" />
    <vehicle id="WE_981" type="car" route="r_6" depart="981" />
    <vehicle id="EW_982" type="car" route="r_4" depart="982" color= "1,0,0"/>
    <vehicle id="SN_983" type="car" route="r_1" depart="983" color="0,0,1"/>
    <vehicle id="NS_988" type="car" route="r_9" depart="988" color="0,1,0"/>
    <vehicle id="SN_989" type="truck" route="r_1" depart="989" color="0,0,1"/>
    <vehicle id="WE_990" type="car" route="r_7" depart="990" />
    <vehicle id="EW_992" type="car" route="r_3" depart="992" color= "1,0,0"/>
    <vehicle id="SN_995" type="truck" route="r_2" depart="995" color="0,0,1"/>
    <vehicle id="SN_997" type="truck" route="r_1" depart="997" color="0,0,1"/>
    <vehicle id="EW_998" type="car" route="r_5" depart="998" color= "1,0,0"/>
    <vehicle id="NS_1003" type="car" route="r_10" depart="1003" color="0,1,0"/>
    <vehicle id="EW_1011" type="car" route="r_5" depart="1011" color= "1,0,0"/>