<routes>
        <vType id="car" vClass="passenger" length="4" maxSpeed="25.0" accel="2.6" decel="4.5"/>
        <vType id="truck" vClass="truck" length="10" maxSpeed="20.0" accel="1.2" decel="2.5"/>

        <route id="r_0" edges="3i 1o"/>
        <route id="r_1" edges="3i 4o"/>
        <route id="r_10" edges="2i 3o"/>
        <route id="r_11" edges="2i 4o"/>
        <route id="r_2" edges="3i 2o"/>
        <route id="r_3" edges="4i 3o"/>
        <route id="r_4" edges="4i 2o"/>
        <route id="r_5" edges="4i 1o"/>
        <route id="r_6" edges="1i 2o"/>
        <route id="r_7" edges="1i 4o"/>
        <route id="r_8" edges="1i 3o"/>
        <route id="r_9" edges="2i 1o"/>
    <vehicle id="NS_4" type="car" route="r_10" depart="4" color="0,1,0"/>
    <vehicle id="WE_10" type="car" route="r_7" depart="10" />
    <vehicle id="NS_10" type="car" route="r_9" depart="10" color="0,1,0"/>
    <vehicle id="EW_12" type="car" route="r_4" depart="12" color= "1,0,0"/>
    <vehicle id="EW_13" type="truck" route="r_4" depart="13" color= "1,0,0"/>
    <vehicle id="EW_14" type="car" route="r_4" depart="14" color= "1,0,0"/>
    <vehicle id="SN_17" type="car" route="r_1" depart="17" color="0,0,1"/>
    <vehicle id="EW_18" type="car" route="r_4" depart="18" color= "1,0,0"/>
    <vehicle id="WE_39" type="car" route="r_8" depart="39" />
    <vehicle id="NS_39" type="truck" route="r_10" depart="39" color="0,1,0"/>
    <vehicle id="NS_42" type="car" route="r_11" depart="42" color="0,1,0"/>
    <vehicle id="WE_48" type="car" route="r_7" depart="48" />
    <vehicle id="NS_49" type="car" route="r_9" depart="49" color="0,1,0"/>
    <vehicle id="EW_51" type="car" route="r_3" depart="51" color= "1,0,0"/>
    <vehicle id="NS_52" type="car" route="r_9" depart="52" color="0,1,0"/>
    <vehicle id="SN_54" type="truck" route="r_0" depart="54" color="0,0,1"/>
    <vehicle id="EW_57" type="car" route="r_5" depart="57" color= "1,0,0"/>
    <vehicle id="WE_60" type="car" route="r_7" depart="60" />
    <vehicle id="NS_61" type="car" route="r_9" depart="61" color="0,1,0"/>
    <vehicle id="EW_66" type="car" route="r_3" depart="66" color= "1,0,0"/>
    <vehicle id="EW_67" type="car" route="r_5" depart="67" color= "1,0,0"/>
    <vehicle id="WE_69" type="car" route="r_8" depart="69" />
    <vehicle id="WE_70" type="car" route="r_8" depart="70" />
    <vehicle id="WE_71" type="car" route="r_6" depart="71" />
    <vehicle id="WE_77" type="car" route="r_6" depart="77" />
    <vehicle id="EW_78" type="car" route="r_4" depart="78" color= "1,0,0"/>
    <vehicle id="EW_80" type="car" route="r_4" depart="80" color= "1,0,0"/>
    <vehicle id="WE_81" type="car" route="r_6" depart="81" />
    <vehicle id="NS_84" type="car" route="r_9" depart="84" color="0,1,0"/>
    <vehicle id="SN_84" type="car" route="r_0" depart="84" color="0,0,1"/>
    <vehicle id="SN_88" type="car" route="r_0" depart="88" color="0,0,1"/>
    <vehicle id="WE_89" type="car" route="r_6" depart="89" />
    <vehicle id="SN_96" type="car" route="r_2" depart="96" color="0,0,1"/>
    <vehicle id="SN_98" type="car" route="r_1" depart="98" color="0,0,1"/>
    <vehicle id="WE_100" type="car" route="r_7" depart="100" />
    <vehicle id="SN_100" type="car" route="r_1" depart="100" color="0,0,1"/>
    <vehicle id="EW_101" type="car" route="r_3" depart="101" color= "1,0,0"/>
    <vehicle id="NS_102" type="car" route="r_10" depart="102" color="0,1,0"/>
    <vehicle id="WE_103" type="car" route="r_6" depart="103" />
    <vehicle id="WE_109" type="car" route="r_7" depart="109" />
    <vehicle id="SN_110" type="car" route="r_1" depart="110" color="0,0,1"/>
    <vehicle id="EW_112" type="truck" route="r_3" depart="112" color= "1,0,0"/>
    <vehicle id="WE_113" type="car" route="r_7" depart="113" />
    <vehicle id="EW_113" type="truck" route="r_3" depart="113" color= "1,0,0"/>
    <vehicle id="WE_118" type="car" route="r_8" depart="118" />
    <vehicle id="EW_122" type="car" route="r_5" depart="122" color= "1,0,0"/>
    <vehicle id="EW_124" type="car" route="r_4" depart="124" color= "1,0,0"/>
    <vehicle id="EW_125" type="car" route="r_3" depart="125" color= "1,0,0"/>
    <vehicle id="SN_125" type="car" route="r_0" depart="125" color="0,0,1"/>
    <vehicle id="WE_126" type="car" route="r_6" depart="126" />
    <vehicle id="EW_127" type="car" route="r_3" depart="127" color= "1,0,0"/>
    <vehicle id="EW_129" type="car" route="r_4" depart="129" color= "1,0,0"/>
    <vehicle id="SN_129" type="car" route="r_2" depart="129" color="0,0,1"/>
    <vehicle id="NS_130" type="car" route="r_10" depart="130" color="0,1,0"/>
    <vehicle id="EW_143" type="truck" route="r_4" depart="143" color= "1,0,0"/>
    <vehicle id="NS_145" type="car" route="r_11" depart="145" color="0,1,0"/>
    <vehicle id="SN_145" type="car" route="r_1" depart="145" color="0,0,1"/>
    <vehicle id="WE_150" type="car" route="r_6" depart="150" />
    <vehicle id="NS_154" type="car" route="r_11" depart="154" color="0,1,0"/>
    <vehicle id="SN_155" type="car" route="r_1" depart="155" color="0,0,1"/>
    <vehicle id="SN_159" type="truck" route="r_2" depart="159" color="0,0,1"/>
    <vehicle id="EW_160" type="car" route="r_3" depart="160" color= "1,0,0"/>
    <vehicle id="SN_164" type="car" route="r_0" depart="164" color="0,0,1"/>
    <vehicle id="SN_165" type="truck" route="r_0" depart="165" color="0,0,1"/>
    <vehicle id="SN_167" type="car" route="r_1" depart="167" color="0,0,1"/>
    <vehicle id="EW_168" type="car" route="r_3" depart="168" color= "1,0,0"/>
    <vehicle id="WE_171" type="car" route="r_7" depart="171" />
    <vehicle id="WE_173" type="car" route="r_6" depart="173" />
    <vehicle id="EW_173" type="car" route="r_5" depart="173" color= "1,0,0"/>
    <vehicle id="NS_175" type="car" route="r_11" depart="175" color="0,1,0"/>
    <vehicle id="WE_178" type="car" route="r_8" depart="178" />
    <vehicle id="EW_180" type="car" route="r_4" depart="180" color= "1,0,0"/>
    <vehicle id="NS_184" type="car" route="r_11" depart="184" color="0,1,0"/>
    <vehicle id="SN_189" type="car" route="r_0" depart="189" color="0,0,1"/>
    <vehicle id="EW_191" type="car" route="r_3" depart="191" color= "1,0,0"/>
    <vehicle id="NS_191" type="car" route="r_9" depart="191" color="0,1,0"/>
    <vehicle id="NS_193" type="car" route="r_10" depart="193" color="0,1,0"/>
    <vehicle id="SN_197" type="truck" route="r_2" depart="197" color="0,0,1"/>
    <vehicle id="EW_198" type="car" route="r_3" depart="198" color= "1,0,0"/>
    <vehicle id="SN_201" type="car" route="r_0" depart="201" color="0,0,1"/>
    <vehicle id="WE_202" type="car" route="r_7" depart="202" />
    <vehicle id="WE_203" type="car" route="r_6" depart="203" />
    <vehicle id="SN_204" type="car" route="r_2" depart="204" color="0,0,1"/>
    <vehicle id="EW_205" type="car" route="r_3" depart="205" color= "1,0,0"/>
    <vehicle id="NS_206" type="car" route="r_10" depart="206" color="0,1,0"/>
    <vehicle id="EW_207" type="car" route="r_4" depart="207" color= "1,0,0"/>
    <vehicle id="WE_208" type="car" route="r_6" depart="208" />
    <vehicle id="NS_208" type="car" route="r_9" depart="208" color="0,1,0"/>
    <vehicle id="SN_209" type="car" route="r_1" depart="209" color="0,0,1"/>
    <vehicle id="SN_210" type="car" route="r_1" depart="210" color="0,0,1"/>
    <vehicle id="SN_214" type="car" route="r_1" depart="214" color="0,0,1"/>
    <vehicle id="EW_215" type="car" route="r_3" depart="215" color= "1,0,0"/>
    <vehicle id="EW_219" type="car" route="r_5" depart="219" color= "1,0,0"/>
    <vehicle id="NS_221" type="car" route="r_11" depart="221" color="0,1,0"/>
    <vehicle id="EW_223" type="car" route="r_5" depart="223" color= "1,0,0"/>
    <vehicle id="NS_223" type="car" route="r_11" depart="223" color="0,1,0"/>
    <vehicle id="NS_230" type="truck" route="r_11" depart="230" color="0,1,0"/>
    <vehicle id="WE_235" type="car" route="r_7" depart="235" />
    <vehicle id="SN_235" type="car" route="r_0" depart="235" color="0,0,1"/>
    <vehicle id="NS_236" type="car" route="r_10" depart="236" color="0,1,0"/>
    <vehicle id="NS_237" type="car" route="r_11" depart="237" color="0,1,0"/>
    <vehicle id="NS_238" type="car" route="r_9" depart="238" color="0,1,0"/>
    <vehicle id="WE_240" type="car" route="r_8" depart="240" />
    <vehicle id="WE_244" type="car" route="r_8" depart="244" />
    <vehicle id="SN_246" type="car" route="r_2" depart="246" color="0,0,1"/>
    <vehicle id="NS_247" type="car" route="r_11" depart="247" color="0,1,0"/>
    <vehicle id="SN_248" type="car" route="r_0" depart="248" color="0,0,1"/>
    <vehicle id="SN_250" type="car" route="r_1" depart="250" color="0,0,1"/>
    <vehicle id="EW_252" type="car" route="r_5" depart="252" color= "1,0,0"/>
    <vehicle id="NS_253" type="car" route="r_9" depart="253" color="0,1,0"/>
    <vehicle id="EW_256" type="car" route="r_4" depart="256" color= "1,0,0"/>
    <vehicle id="EW_257" type="truck" route="r_4" depart="257" color= "1,0,0"/>
    <vehicle id="EW_259" type="car" route="r_4" depart="259" color= "1,0,0"/>
    <vehicle id="WE_265" type="car" route="r_6" depart="265" />
    <vehicle id="NS_265" type="car" route="r_9" depart="265" color="0,1,0"/>
    <vehicle id="EW_267" type="car" route="r_4" depart="267" color= "1,0,0"/>
    <vehicle id="NS_269" type="car" route="r_11" depart="269" color="0,1,0"/>
    <vehicle id="SN_272" type="car" route="r_0" depart="272" color="0,0,1"/>
    <vehicle id="EW_273" type="car" route="r_5" depart="273" color= "1,0,0"/>
    <vehicle id="WE_274" type="car" route="r_6" depart="274" />
    <vehicle id="SN_274" type="car" route="r_0" depart="274" color="0,0,1"/>
    <vehicle id="EW_281" type="car" route="r_3" depart="281" color= "1,0,0"/>
    <vehicle id="NS_282" type="car" route="r_11" depart="282" color="0,1,0"/>
    <vehicle id="SN_282" type="car" route="r_1" depart="282" color="0,0,1"/>
    <vehicle id="WE_284" type="car" route="r_6" depart="284" />
    <vehicle id="SN_285" type="truck" route="r_0" depart="285" color="0,0,1"/>
    <vehicle id="WE_288" type="car" route="r_6" depart="288" />
    <vehicle id="SN_293" type="car" route="r_1" depart="293" color="0,0,1"/>
    <vehicle id="WE_298" type="car" route="r_8" depart="298" />
    <vehicle id="NS_301" type="car" route="r_11" depart="301" color="0,1,0"/>
    <vehicle id="EW_303" type="car" route="r_4" depart="303" color= "1,0,0"/>
    <vehicle id="NS_307" type="truck" route="r_9" depart="307" color="0,1,0"/>
    <vehicle id="WE_323" type="car" route="r_6" depart="323" />
    <vehicle id="EW_323" type="car" route="r_3" depart="323" color= "1,0,0"/>
    <vehicle id="NS_324" type="car" route="r_11" depart="324" color="0,1,0"/>
    <vehicle id="EW_327" type="car" route="r_4" depart="327" color= "1,0,0"/>
    <vehicle id="NS_328" type="car" route="r_9" depart="328" color="0,1,0"/>
    <vehicle id="NS_331" type="car" route="r_9" depart="331" color="0,1,0"/>
    <vehicle id="EW_332" type="car" route="r_5" depart="332" color= "1,0,0"/>
    <vehicle id="EW_334" type="truck" route="r_4" depart="334" color= "1,0,0"/>
    <vehicle id="WE_338" type="car" route="r_6" depart="338" />
    <vehicle id="EW_340" type="car" route="r_3" depart="340" color= "1,0,0"/>
    <vehicle id="SN_341" type="car" route="r_0" depart="341" color="0,0,1"/>
    <vehicle id="NS_342" type="car" route="r_9" depart="342" color="0,1,0"/>
    <vehicle id="NS_343" type="car" route="r_9" depart="343" color="0,1,0"/>
    <vehicle id="WE_344" type="car" route="r_6" depart="344" />
    <vehicle id="EW_344" type="car" route="r_4" depart="344" color= "1,0,0"/>
    <vehicle id="EW_346" type="car" route="r_4" depart="346" color= "1,0,0"/>
    <vehicle id="NS_348" type="car" route="r_10" depart="348" color="0,1,0"/>
    <vehicle id="WE_354" type="car" route="r_6" depart="354" />
    <vehicle id="NS_354" type="car" route="r_11" depart="354" color="0,1,0"/>
    <vehicle id="SN_354" type="car" route="r_0" depart="354" color="0,0,1"/>
    <vehicle id="EW_356" type="car" route="r_3" depart="356" color= "1,0,0"/>
    <vehicle id="SN_356" type="car" route="r_0" depart="356" color="0,0,1"/>
    <vehicle id="EW_360" type="car" route="r_4" depart="360" color= "1,0,0"/>
    <vehicle id="WE_366" type="car" route="r_7" depart="366" />
    <vehicle id="EW_367" type="car" route="r_5" depart="367" color= "1,0,0"/>
    <vehicle id="EW_371" type="car" route="r_5" depart="371" color= "1,0,0"/>
    <vehicle id="SN_371" type="car" route="r_1" depart="371" color="0,0,1"/>
    <vehicle id="EW_372" type="car" route="r_3" depart="372" color= "1,0,0"/>
    <vehicle id="NS_373" type="car" route="r_9" depart="373" color="0,1,0"/>
    <vehicle id="WE_374" type="truck" route="r_6" depart="374" />
    <vehicle id="SN_374" type="car" route="r_2" depart="374" color="0,0,1"/>
    <vehicle id="NS_375" type="car" route="r_10" depart="375" color="0,1,0"/>
    <vehicle id="SN_375" type="car" route="r_1" depart="375" color="0,0,1"/>
    <vehicle id="SN_378" type="car" route="r_1" depart="378" color="0,0,1"/>
    <vehicle id="EW_379" type="car" route="r_3" depart="379" color= "1,0,0"/>
    <vehicle id="SN_380" type="car" route="r_0" depart="380" color="0,0,1"/>
    <vehicle id="EW_387" type="car" route="r_3" depart="387" color= "1,0,0"/>
    <vehicle id="WE_392" type="car" route="r_7" depart="392" />
    <vehicle id="SN_393" type="car" route="r_2" depart="393" color="0,0,1"/>
    <vehicle id="EW_395" type="car" route="r_4" depart="395" color= "1,0,0"/>
    <vehicle id="NS_396" type="car" route="r_11" depart="396" color="0,1,0"/>
    <vehicle id="EW_397" type="car" route="r_4" depart="397" color= "1,0,0"/>
    <vehicle id="NS_398" type="car" route="r_10" depart="398" color="0,1,0"/>
    <vehicle id="WE_403" type="car" route="r_6" depart="403" />
    <vehicle id="NS_403" type="car" route="r_9" depart="403" color="0,1,0"/>
    <vehicle id="SN_405" type="car" route="r_1" depart="405" color="0,0,1"/>
    <vehicle id="NS_408" type="car" route="r_10" depart="408" color="0,1,0"/>
    <vehicle id="EW_410" type="car" route="r_5" depart="410" color= "1,0,0"/>
    <vehicle id="SN_427" type="car" route="r_0" depart="427" color="0,0,1"/>
    <vehicle id="EW_428" type="car" route="r_5" depart="428" color= "1,0,0"/>
    <vehicle id="NS_428" type="car" route="r_10" depart="428" color="0,1,0"/>
    <vehicle id="WE_429" type="car" route="r_8" depart="429" />
    <vehicle id="WE_430" type="truck" route="r_7" depart="430" />
    <vehicle id="EW_432" type="car" route="r_5" depart="432" color= "1,0,0"/>
    <vehicle id="SN_432" type="car" route="r_1" depart="432" color="0,0,1"/>
    <vehicle id="NS_433" type="car" route="r_9" depart="433" color="0,1,0"/>
    <vehicle id="WE_443" type="car" route="r_8" depart="443" />
    <vehicle id="EW_448" type="car" route="r_5" depart="448" color= "1,0,0"/>
    <vehicle id="NS_449" type="car" route="r_11" depart="449" color="0,1,0"/>
    <vehicle id="EW_451" type="car" route="r_4" depart="451" color= "1,0,0"/>
    <vehicle id="EW_452" type="car" route="r_5" depart="452" color= "1,0,0"/>
    <vehicle id="SN_452" type="car" route="r_0" depart="452" color="0,0,1"/>
    <vehicle id="WE_457" type="car" route="r_7" depart="457" />
    <vehicle id="WE_461" type="car" route="r_7" depart="461" />
    <vehicle id="WE_466" type="car" route="r_8" depart="466" />
    <vehicle id="EW_468" type="car" route="r_3" depart="468" color= "1,0,0"/>
    <vehicle id="SN_471" type="car" route="r_1" depart="471" color="0,0,1"/>
    <vehicle id="SN_473" type="car" route="r_1" depart="473" color="0,0,1"/>
    <vehicle id="EW_476" type="car" route="r_4" depart="476" color= "1,0,0"/>
    <vehicle id="NS_477" type="car" route="r_9" depart="477" color="0,1,0"/>
    <vehicle id="SN_479" type="car" route="r_0" depart="479" color="0,0,1"/>
    <vehicle id="NS_480" type="car" route="r_11" depart="480" color="0,1,0"/>
    <vehicle id="EW_483" type="car" route="r_3" depart="483" color= "1,0,0"/>
    <vehicle id="NS_486" type="car" route="r_11" depart="486" color="0,1,0"/>
    <vehicle id="SN_492" type="car" route="r_2" depart="492" color="0,0,1"/>
    <vehicle id="WE_493" type="car" route="r_8" depart="493" />
    <vehicle id="WE_494" type="car" route="r_6" depart="494" />
    <vehicle id="EW_494" type="car" route="r_3" depart="494" color= "1,0,0"/>
    <vehicle id="WE_501" type="car" route="r_8" depart="501" />
    <vehicle id="NS_501" type="car" route="r_9" depart="501" color="0,1,0"/>
    <vehicle id="SN_503" type="car" route="r_2" depart="503" color="0,0,1"/>
    <vehicle id="SN_509" type="truck" route="r_0" depart="509" color="0,0,1"/>
    <vehicle id="NS_512" type="car" route="r_10" depart="512" color="0,1,0"/>
    <vehicle id="EW_515" type="car" route="r_4" depart="515" color= "1,0,0"/>
    <vehicle id="NS_515" type="car" route="r_9" depart="515" color="0,1,0"/>
    <vehicle id="WE_516" type="truck" route="r_7" depart="516" />
    <vehicle id="EW_518" type="car" route="r_4" depart="518" color= "1,0,0"/>
    <vehicle id="NS_525" type="car" route="r_10" depart="525" color="0,1,0"/>
    <vehicle id="EW_528" type="truck" route="r_5" depart="528" color= "1,0,0"/>
    <vehicle id="SN_530" type="car" route="r_1" depart="530" color="0,0,1"/>
    <vehicle id="SN_534" type="car" route="r_1" depart="534" color="0,0,1"/>
    <vehicle id="SN_536" type="car" route="r_2" depart="536" color="0,0,1"/>
    <vehicle id="EW_537" type="car" route="r_4" depart="537" color= "1,0,0"/>
    <vehicle id="NS_537" type="car" route="r_9" depart="537" color="0,1,0"/>
    <vehicle id="SN_537" type="car" route="r_1" depart="537" color="0,0,1"/>
    <vehicle id="NS_545" type="car" route="r_9" depart="545" color="0,1,0"/>
    <vehicle id="SN_545" type="car" route="r_2" depart="545" color="0,0,1"/>
    <vehicle id="NS_547" type="car" route="r_9" depart="547" color="0,1,0"/>
    <vehicle id="SN_547" type="car" route="r_0" depart="547" color="0,0,1"/>
    <vehicle id="WE_552" type="car" route="r_8" depart="552" />
    <vehicle id="EW_552" type="car" route="r_5" depart="552" color= "1,0,0"/>
    <vehicle id="EW_553" type="car" route="r_4" depart="553" color= "1,0,0"/>
    <vehicle id="SN_553" type="car" route="r_2" depart="553" color="0,0,1"/>
    <vehicle id="SN_556" type="car" route="r_1" depart="556" color="0,0,1"/>
    <vehicle id="EW_559" type="car" route="r_5" depart="559" color= "1,0,0"/>
    <vehicle id="EW_567" type="car" route="r_5" depart="567" color= "1,0,0"/>
    <vehicle id="WE_570" type="car" route="r_7" depart="570" />
    <vehicle id="EW_570" type="car" route="r_4" depart="570" color= "1,0,0"/>
    <vehicle id="NS_572" type="car" route="r_11" depart="572" color="0,1,0"/>
    <vehicle id="WE_575" type="car" route="r_8" depart="575" />
    <vehicle id="NS_575" type="car" route="r_11" depart="575" color="0,1,0"/>
    <vehicle id="WE_580" type="car" route="r_7" depart="580" />
    <vehicle id="EW_580" type="car" route="r_5" depart="580" color= "1,0,0"/>
    <vehicle id="SN_587" type="car" route="r_2" depart="587" color="0,0,1"/>
    <vehicle id="NS_589" type="car" route="r_10" depart="589" color="0,1,0"/>
    <vehicle id="SN_589" type="car" route="r_1" depart="589" color="0,0,1"/>
    <vehicle id="EW_598" type="car" route="r_4" depart="598" color= "1,0,0"/>
    <vehicle id="NS_603" type="truck" route="r_10" depart="603" color="0,1,0"/>
    <vehicle id="WE_607" type="car" route="r_8" depart="607" />
    <vehicle id="SN_607" type="car" route="r_2" depart="607" color="0,0,1"/>
    <vehicle id="SN_611" type="car" route="r_1" depart="611" color="0,0,1"/>
    <vehicle id="WE_624" type="car" route="r_6" depart="624" />
    <vehicle id="NS_625" type="car" route="r_10" depart="625" color="0,1,0"/>
    <vehicle id="WE_629" type="truck" route="r_6" depart="629" />
    <vehicle id="EW_633" type="car" route="r_5" depart="633" color= "1,0,0"/>
    <vehicle id="EW_643" type="car" route="r_4" depart="643" color= "1,0,0"/>
    <vehicle id="SN_643" type="car" route="r_0" depart="643" color="0,0,1"/>
    <vehicle id="NS_654" type="car" route="r_11" depart="654" color="0,1,0"/>
    <vehicle id="SN_655" type="car" route="r_2" depart="655" color="0,0,1"/>
    <vehicle id="NS_657" type="truck" route="r_10" depart="657" color="0,1,0"/>
    <vehicle id="NS_658" type="car" route="r_9" depart="658" color="0,1,0"/>
    <vehicle id="NS_659" type="car" route="r_11" depart="659" color="0,1,0"/>
    <vehicle id="WE_665" type="car" route="r_6" depart="665" />
    <vehicle id="SN_667" type="car" route="r_1" depart="667" color="0,0,1"/>
    <vehicle id="SN_670" type="car" route="r_1" depart="670" color="0,0,1"/>
    <vehicle id="SN_673" type="truck" route="r_2" depart="673" color="0,0,1"/>
    <vehicle id="WE_674" type="car" route="r_8" depart="674" />
    <vehicle id="WE_676" type="car" route="r_6" depart="676" />
    <vehicle id="NS_679" type="car" route="r_9" depart="679" color="0,1,0"/>
    <vehicle id="NS_680" type="car" route="r_10" depart="680" color="0,1,0"/>
    <vehicle id="EW_681" type="car" route="r_3" depart="681" color= "1,0,0"/>
    <vehicle id="NS_687" type="car" route="r_11" depart="687" color="0,1,0"/>
    <vehicle id="NS_689" type="car" route="r_10" depart="689" color="0,1,0"/>
    <vehicle id="WE_693" type="car" route="r_6" depart="693" />
    <vehicle id="SN_699" type="car" route="r_1" depart="699" color="0,0,1"/>
    <vehicle id="SN_702" type="car" route="r_1" depart="702" color="0,0,1"/>
    <vehicle id="EW_703" type="car" route="r_5" depart="703" color= "1,0,0"/>
    <vehicle id="WE_705" type="car" route="r_6" depart="705" />
    <vehicle id="NS_705" type="car" route="r_9" depart="705" color="0,1,0"/>
    <vehicle id="WE_707" type="car" route="r_6" depart="707" />
    <vehicle id="WE_717" type="car" route="r_6" depart="717" />
    <vehicle id="WE_721" type="car" route="r_7" depart="721" />
    <vehicle id="EW_721" type="car" route="r_3" depart="721" color= "1,0,0"/>
    <vehicle id="WE_726" type="car" route="r_8" depart="726" />
    <vehicle id="EW_729" type="car" route="r_3" depart="729" color= "1,0,0"/>
    <vehicle id="EW_730" type="car" route="r_4" depart="730" color= "1,0,0"/>
    <vehicle id="WE_732" type="car" route="r_8" depart="732" />
    <vehicle id="NS_734" type="car" route="r_9" depart="734" color="0,1,0"/>
    <vehicle id="WE_736" type="car" route="r_8" depart="736" />
    <vehicle id="EW_737" type="car" route="r_3" depart="737" color= "1,0,0"/>
    <vehicle id="SN_739" type="car" route="r_0" depart="739" color="0,0,1"/>
    <vehicle id="SN_741" type="truck" route="r_1" depart="741" color="0,0,1"/>
    <vehicle id="SN_749" type="car" route="r_2" depart="749" color="0,0,1"/>
    <vehicle id="SN_750" type="car" route="r_1" depart="750" color="0,0,1"/>
    <vehicle id="EW_753" type="car" route="r_4" depart="753" color= "1,0,0"/>
    <vehicle id="SN_754" type="truck" route="r_0" depart="754" color="0,0,1"/>
    <vehicle id="NS_756" type="car" route="r_11" depart="756" color="0,1,0"/>
    <vehicle id="SN_757" type="car" route="r_0" depart="757" color="0,0,1"/>
    <vehicle id="NS_760" type="truck" route="r_11" depart="760" color="0,1,0"/>
    <vehicle id="NS_761" type="car" route="r_9" depart="761" color="0,1,0"/>
    <vehicle id="WE_766" type="car" route="r_6" depart="766" />
    <vehicle id="EW_766" type="car" route="r_5" depart="766" color= "1,0,0"/>
    <vehicle id="NS_768" type="car" route="r_9" depart="768" color="0,1,0"/>
    <vehicle id="SN_769" type="car" route="r_2" depart="769" color="0,0,1"/>
    <vehicle id="EW_771" type="car" route="r_3" depart="771" color= "1,0,0"/>
    <vehicle id="NS_771" type="car" route="r_10" depart="771" color="0,1,0"/>
    <vehicle id="SN_774" type="car" route="r_1" depart="774" color="0,0,1"/>
    <vehicle id="WE_775" type="car" route="r_7" depart="775" />
    <vehicle id="NS_777" type="car" route="r_10" depart="777" color="0,1,0"/>
    <vehicle id="EW_792" type="truck" route="r_3" depart="792" color= "1,0,0"/>
    <vehicle id="WE_793" type="truck" route="r_8" depart="793" />
    <vehicle id="NS_793" type="car" route="r_9" depart="793" color="0,1,0"/>
    <vehicle id="NS_794" type="car" route="r_10" depart="794" color="0,1,0"/>
    <vehicle id="WE_797" type="car" route="r_7" depart="797" />
    <vehicle id="SN_797" type="car" route="r_0" depart="797" color="0,0,1"/>
    <vehicle id="SN_799" type="car" route="r_0" depart="799" color="0,0,1"/>
    <vehicle id="SN_802" type="car" route="r_2" depart="802" color="0,0,1"/>
    <vehicle id="SN_803" type="car" route="r_2" depart="803" color="0,0,1"/>
    <vehicle id="WE_806" type="car" route="r_8" depart="806" />
    <vehicle id="EW_807" type="car" route="r_3" depart="807" color= "1,0,0"/>
    <vehicle id="SN_807" type="car" route="r_2" depart="807" color="0,0,1"/>
    <vehicle id="WE_808" type="car" route="r_7" depart="808" />
    <vehicle id="NS_808" type="car" route="r_9" depart="808" color="0,1,0"/>
    <vehicle id="WE_809" type="car" route="r_6" depart="809" />
    <vehicle id="SN_810" type="car" route="r_1" depart="810" color="0,0,1"/>
    <vehicle id="EW_815" type="car" route="r_3" depart="815" color= "1,0,0"/>
    <vehicle id="EW_822" type="car" route="r_5" depart="822" color= "1,0,0"/>
    <vehicle id="NS_823" type="car" route="r_11" depart="823" color="0,1,0"/>
    <vehicle id="NS_828" type="car" route="r_10" depart="828" color="0,1,0"/>
    <vehicle id="NS_830" type="car" route="r_9" depart="830" color="0,1,0"/>
    <vehicle id="NS_831" type="car" route="r_11" depart="831" color="0,1,0"/>
    <vehicle id="WE_832" type="car" route="r_8" depart="832" />
    <vehicle id="NS_835" type="car" route="r_9" depart="835" color="0,1,0"/>
    <vehicle id="EW_836" type="car" route="r_5" depart="836" color= "1,0,0"/>
    <vehicle id="EW_843" type="car" route="r_4" depart="843" color= "1,0,0"/>
    <vehicle id="NS_850" type="car" route="r_9" depart="850" color="0,1,0"/>
    <vehicle id="WE_858" type="car" route="r_6" depart="858" />
    <vehicle id="SN_864" type="car" route="r_1" depart="864" color="0,0,1"/>
    <vehicle id="WE_868" type="car" route="r_8" depart="868" />
    <vehicle id="EW_868" type="car" route="r_3" depart="868" color= "1,0,0"/>
    <vehicle id="SN_871" type="car" route="r_1" depart="871" color="0,0,1"/>
    <vehicle id="WE_877" type="car" route="r_7" depart="877" />
    <vehicle id="SN_878" type="car" route="r_2" depart="878" color="0,0,1"/>
    <vehicle id="EW_881" type="car" route="r_5" depart="881" color= "1,0,0"/>
    <vehicle id="SN_881" type="car" route="r_0" depart="881" color="0,0,1"/>
    <vehicle id="WE_883" type="car" route="r_8" depart="883" />
    <vehicle id="NS_883" type="car" route="r_10" depart="883" color="0,1,0"/>
    <vehicle id="WE_884" type="car" route="r_6" depart="884" />
    <vehicle id="NS_888" type="car" route="r_11" depart="888" color="0,1,0"/>
    <vehicle id="SN_892" type="car" route="r_0" depart="892" color="0,0,1"/>
    <vehicle id="SN_893" type="car" route="r_0" depart="893" color="0,0,1"/>
    <vehicle id="WE_895" type="car" route="r_6" depart="895" />
    <vehicle id="SN_896" type="car" route="r_0" depart="896" color="0,0,1"/>
    <vehicle id="NS_897" type="car" route="r_9" depart="897" color="0,1,0"/>
    <vehicle id="WE_899" type="truck" route="r_8" depart="899" />
    <vehicle id="NS_899" type="car" route="r_9" depart="899" color="0,1,0"/>
    <vehicle id="NS_901" type="car" route="r_9" depart="901" color="0,1,0"/>
    <vehicle id="SN_901" type="car" route="r_0" depart="901" color="0,0,1"/>
    <vehicle id="WE_904" type="truck" route="r_8" depart="904" />
    <vehicle id="SN_907" type="car" route="r_0" depart="907" color="0,0,1"/>
    <vehicle id="NS_908" type="car" route="r_9" depart="908" color="0,1,0"/>
    <vehicle id="EW_909" type="car" route="r_4" depart="909" color= "1,0,0"/>
    <vehicle id="EW_914" type="car" route="r_4" depart="914" color= "1,0,0"/>
    <vehicle id="WE_915" type="car" route="r_7" depart="915" />
    <vehicle id="SN_915" type="car" route="r_0" depart="915" color="0,0,1"/>
    <vehicle id="EW_922" type="car" route="r_3" depart="922" color= "1,0,0"/>
    <vehicle id="WE_927" type="car" route="r_7" depart="927" />
    <vehicle id="SN_933" type="car" route="r_2" depart="933" color="0,0,1"/>
    <vehicle id="WE_935" type="car" route="r_6" depart="935" />
    <vehicle id="NS_937" type="car" route="r_9" depart="937" color="0,1,0"/>
    <vehicle id="EW_938" type="car" route="r_4" depart="938" color= "1,0,0"/>
    <vehicle id="WE_940" type="car" route="r_8" depart="940" />
    <vehicle id="EW_940" type="car" route="r_3" depart="940" color= "1,0,0"/>
    <vehicle id="EW_941" type="car" route="r_4" depart="941" color= "1,0,0"/>
    <vehicle id="SN_941" type="car" route="r_2" depart="941" color="0,0,1"/>
    <vehicle id="WE_946" type="car" route="r_8" depart="946" />
    <vehicle id="NS_946" type="car" route="r_10" depart="946" color="0,1,0"/>
    <vehicle id="NS_948" type="car" route="r_10" depart="948" color="0,1,0"/>
    <vehicle id="EW_950" type="car" route="r_4" depart="950" color= "1,0,0"/>
    <vehicle id="EW_958" type="car" route="r_5" depart="958" color= "1,0,0"/>
    <vehicle id="WE_959" type="car" route="r_6" depart="959" />
    <vehicle id="NS_966" type="car" route="r_9" depart="966" color="0,1,0"/>
    <vehicle id="NS_968" type="car" route="r_9" depart="968" color="0,1,0"/>
    <vehicle id="NS_969" type="car" route="r_11" depart="969" color="0,1,0"/>
    <vehicle id="WE_971" type="car" route="r_8" depart="971" />
    <vehicle id="SN_971" type="car" route="r_0" depart="971" color="0,0,1"/>
    <vehicle id="SN_974" type="car" route="r_1" depart="974" color="0,0,1"/>
    <vehicle id="SN_977" type="car" route="r_1" depart="977" color="0,0,1"/>
    <vehicle id="EW_979" type="car" route="r_4" depart="979" color= "1,0,0"/>
    <vehicle id="WE_988" type="car" route="r_7" depart="988" />
    <vehicle id="WE_989" type="truck" route="r_6" depart="989" />
    <vehicle id="EW_992" type="car" route="r_4" depart="992" color= "1,0,0"/>