<routes>
        <vType id="car" vClass="passenger" length="4" maxSpeed="25.0" accel="2.6" decel="4.5"/>
        <vType id="truck" vClass="truck" length="10" maxSpeed="20.0" accel="1.2" decel="2.5"/>

        <route id="r_0" edges="3i 1o"/>
        <route id="r_1" edges="3i 4o"/>
        <route id="r_10" edges="2i 3o"/>
        <route id="r_11" edges="2i 4o"/>
        <route id="r_2" edges="3i 2o"/>
        <route id="r_3" edges="4i 3o"/>
        <route id="r_4" edges="4i 2o"/>
        <route id="r_5" edges="4i 1o"/>
        <route id="r_6" edges="1i 2o"/>
        <route id="r_7" edges="1i 4o"/>
        <route id="r_8" edges="1i 3o"/>
        <route id="r_9" edges="2i 1o"/>
    <vehicle id="SN_8" type="car" route="r_1" depart="8" color="0,0,1"/>
    <vehicle id="NS_9" type="car" route="r_11" depart="9" color="0,1,0"/>
    <vehicle id="WE_12" type="car" route="r_7" depart="12" />
    <vehicle id="EW_17" type="car" route="r_5" depart="17" color= "1,0,0"/>
    <vehicle id="EW_22" type="car" route="r_4" depart="22" color= "1,0,0"/>
    <vehicle id="NS_25" type="car" route="r_11" depart="25" color="0,1,0"/>
    <vehicle id="EW_26" type="car" route="r_4" depart="26" color= "1,0,0"/>
    <vehicle id="NS_27" type="car" route="r_11" depart="27" color="0,1,0"/>
    <vehicle id="WE_29" type="car" route="r_6" depart="29" />
    <vehicle id="SN_30" type="car" route="r_2" depart="30" color="0,0,1"/>
    <vehicle id="WE_33" type="car" route="r_8" depart="33" />
    <vehicle id="SN_36" type="car" route="r_1" depart="36" color="0,0,1"/>
    <vehicle id="WE_37" type="car" route="r_6" depart="37" />
    <vehicle id="WE_40" type="car" route="r_7" depart="40" />
    <vehicle id="SN_42" type="car" route="r_0" depart="42" color="0,0,1"/>
    <vehicle id="SN_46" type="car" route="r_2" depart="46" color="0,0,1"/>
    <vehicle id="EW_48" type="car" route="r_4" depart="48" color= "1,0,0"/>
    <vehicle id="NS_48" type="car" route="r_10" depart="48" color="0,1,0"/>
    <vehicle id="EW_50" type="car" route="r_4" depart="50" color= "1,0,0"/>
    <vehicle id="NS_52" type="car" route="r_11" depart="52" color="0,1,0"/>
    <vehicle id="SN_53" type="car" route="r_2" depart="53" color="0,0,1"/>
    <vehicle id="WE_56" type="car" route="r_7" depart="56" />
    <vehicle id="EW_57" type="car" route="r_5" depart="57" color= "1,0,0"/>
    <vehicle id="WE_59" type="car" route="r_7" depart="59" />
    <vehicle id="EW_59" type="car" route="r_3" depart="59" color= "1,0,0"/>
    <vehicle id="WE_64" type="car" route="r_8" depart="64" />
    <vehicle id="EW_64" type="car" route="r_4" depart="64" color= "1,0,0"/>
    <vehicle id="NS_67" type="car" route="r_11" depart="67" color="0,1,0"/>
    <vehicle id="EW_69" type="truck" route="r_3" depart="69" color= "1,0,0"/>
    <vehicle id="NS_75" type="car" route="r_9" depart="75" color="0,1,0"/>
    <vehicle id="WE_77" type="car" route="r_8" depart="77" />
    <vehicle id="EW_77" type="car" route="r_3" depart="77" color= "1,0,0"/>
    <vehicle id="NS_77" type="car" route="r_9" depart="77" color="0,1,0"/>
    <vehicle id="WE_84" type="car" route="r_7" depart="84" />
    <vehicle id="NS_84" type="car" route="r_11" depart="84" color="0,1,0"/>
    <vehicle id="NS_85" type="car" route="r_9" depart="85" color="0,1,0"/>
    <vehicle id="EW_86" type="car" route="r_4" depart="86" color= "1,0,0"/>
    <vehicle id="SN_88" type="car" route="r_0" depart="88" color="0,0,1"/>
    <vehicle id="WE_89" type="car" route="r_7" depart="89" />
    <vehicle id="SN_96" type="car" route="r_2" depart="96" color="0,0,1"/>
    <vehicle id="NS_98" type="car" route="r_11" depart="98" color="0,1,0"/>
    <vehicle id="WE_102" type="car" route="r_8" depart="102" />
    <vehicle id="EW_102" type="truck" route="r_5" depart="102" color= "1,0,0"/>
    <vehicle id="SN_102" type="car" route="r_1" depart="102" color="0,0,1"/>
    <vehicle id="WE_103" type="car" route="r_6" depart="103" />
    <vehicle id="SN_103" type="car" route="r_0" depart="103" color="0,0,1"/>
    <vehicle id="WE_105" type="car" route="r_6" depart="105" />
    <vehicle id="WE_112" type="car" route="r_6" depart="112" />
    <vehicle id="EW_112" type="car" route="r_4" depart="112" color= "1,0,0"/>
    <vehicle id="SN_113" type="car" route="r_1" depart="113" color="0,0,1"/>
    <vehicle id="EW_114" type="car" route="r_4" depart="114" color= "1,0,0"/>
    <vehicle id="EW_120" type="car" route="r_4" depart="120" color= "1,0,0"/>
    <vehicle id="NS_120" type="car" route="r_11" depart="120" color="0,1,0"/>
    <vehicle id="WE_124" type="car" route="r_7" depart="124" />
    <vehicle id="EW_126" type="car" route="r_3" depart="126" color= "1,0,0"/>
    <vehicle id="NS_134" type="car" route="r_11" depart="134" color="0,1,0"/>
    <vehicle id="SN_134" type="car" route="r_0" depart="134" color="0,0,1"/>
    <vehicle id="NS_135" type="car" route="r_9" depart="135" color="0,1,0"/>
    <vehicle id="SN_136" type="car" route="r_1" depart="136" color="0,0,1"/>
    <vehicle id="WE_144" type="car" route="r_6" depart="144" />
    <vehicle id="EW_144" type="car" route="r_3" depart="144" color= "1,0,0"/>
    <vehicle id="SN_149" type="car" route="r_0" depart="149" color="0,0,1"/>
    <vehicle id="SN_153" type="car" route="r_1" depart="153" color="0,0,1"/>
    <vehicle id="SN_156" type="truck" route="r_0" depart="156" color="0,0,1"/>
    <vehicle id="NS_157" type="car" route="r_11" depart="157" color="0,1,0"/>
    <vehicle id="EW_158" type="car" route="r_5" depart="158" color= "1,0,0"/>
    <vehicle id="EW_159" type="car" route="r_5" depart="159" color= "1,0,0"/>
    <vehicle id="SN_159" type="car" route="r_1" depart="159" color="0,0,1"/>
    <vehicle id="SN_171" type="car" route="r_1" depart="171" color="0,0,1"/>
    <vehicle id="NS_172" type="car" route="r_11" depart="172" color="0,1,0"/>
    <vehicle id="SN_176" type="car" route="r_1" depart="176" color="0,0,1"/>
    <vehicle id="WE_180" type="car" route="r_8" depart="180" />
    <vehicle id="EW_183" type="car" route="r_3" depart="183" color= "1,0,0"/>
    <vehicle id="NS_183" type="car" route="r_10" depart="183" color="0,1,0"/>
    <vehicle id="SN_183" type="car" route="r_2" depart="183" color="0,0,1"/>
    <vehicle id="WE_188" type="truck" route="r_7" depart="188" />
    <vehicle id="NS_188" type="car" route="r_11" depart="188" color="0,1,0"/>
    <vehicle id="NS_190" type="car" route="r_9" depart="190" color="0,1,0"/>
    <vehicle id="NS_191" type="truck" route="r_10" depart="191" color="0,1,0"/>
    <vehicle id="NS_193" type="truck" route="r_9" depart="193" color="0,1,0"/>
    <vehicle id="SN_193" type="car" route="r_0" depart="193" color="0,0,1"/>
    <vehicle id="SN_198" type="car" route="r_0" depart="198" color="0,0,1"/>
    <vehicle id="SN_204" type="car" route="r_1" depart="204" color="0,0,1"/>
    <vehicle id="SN_206" type="car" route="r_0" depart="206" color="0,0,1"/>
    <vehicle id="NS_218" type="car" route="r_11" depart="218" color="0,1,0"/>
    <vehicle id="EW_221" type="car" route="r_5" depart="221" color= "1,0,0"/>
    <vehicle id="WE_225" type="car" route="r_6" depart="225" />
    <vehicle id="WE_227" type="car" route="r_8" depart="227" />
    <vehicle id="WE_228" type="car" route="r_7" depart="228" />
    <vehicle id="EW_228" type="car" route="r_4" depart="228" color= "1,0,0"/>
    <vehicle id="NS_228" type="car" route="r_9" depart="228" color="0,1,0"/>
    <vehicle id="WE_229" type="truck" route="r_8" depart="229" />
    <vehicle id="SN_231" type="car" route="r_0" depart="231" color="0,0,1"/>
    <vehicle id="SN_232" type="car" route="r_0" depart="232" color="0,0,1"/>
    <vehicle id="NS_234" type="car" route="r_11" depart="234" color="0,1,0"/>
    <vehicle id="EW_237" type="car" route="r_4" depart="237" color= "1,0,0"/>
    <vehicle id="NS_237" type="car" route="r_11" depart="237" color="0,1,0"/>
    <vehicle id="SN_237" type="car" route="r_1" depart="237" color="0,0,1"/>
    <vehicle id="SN_240" type="car" route="r_1" depart="240" color="0,0,1"/>
    <vehicle id="SN_242" type="car" route="r_0" depart="242" color="0,0,1"/>
    <vehicle id="SN_243" type="car" route="r_1" depart="243" color="0,0,1"/>
    <vehicle id="WE_244" type="car" route="r_8" depart="244" />
    <vehicle id="SN_244" type="car" route="r_1" depart="244" color="0,0,1"/>
    <vehicle id="NS_246" type="car" route="r_9" depart="246" color="0,1,0"/>
    <vehicle id="NS_248" type="car" route="r_10" depart="248" color="0,1,0"/>
    <vehicle id="EW_249" type="car" route="r_5" depart="249" color= "1,0,0"/>
    <vehicle id="NS_250" type="car" route="r_10" depart="250" color="0,1,0"/>
    <vehicle id="EW_251" type="car" route="r_4" depart="251" color= "1,0,0"/>
    <vehicle id="SN_251" type="car" route="r_0" depart="251" color="0,0,1"/>
    <vehicle id="WE_255" type="car" route="r_6" depart="255" />
    <vehicle id="EW_257" type="truck" route="r_3" depart="257" color= "1,0,0"/>
    <vehicle id="EW_258" type="car" route="r_4" depart="258" color= "1,0,0"/>
    <vehicle id="NS_258" type="car" route="r_9" depart="258" color="0,1,0"/>
    <vehicle id="SN_259" type="car" route="r_2" depart="259" color="0,0,1"/>
    <vehicle id="EW_261" type="car" route="r_4" depart="261" color= "1,0,0"/>
    <vehicle id="SN_264" type="car" route="r_1" depart="264" color="0,0,1"/>
    <vehicle id="EW_265" type="car" route="r_5" depart="265" color= "1,0,0"/>
    <vehicle id="EW_266" type="car" route="r_3" depart="266" color= "1,0,0"/>
    <vehicle id="NS_275" type="car" route="r_11" depart="275" color="0,1,0"/>
    <vehicle id="WE_285" type="car" route="r_8" depart="285" />
    <vehicle id="EW_288" type="car" route="r_5" depart="288" color= "1,0,0"/>
    <vehicle id="WE_291" type="car" route="r_8" depart="291" />
    <vehicle id="NS_293" type="car" route="r_10" depart="293" color="0,1,0"/>
    <vehicle id="SN_294" type="car" route="r_1" depart="294" color="0,0,1"/>
    <vehicle id="NS_298" type="car" route="r_10" depart="298" color="0,1,0"/>
    <vehicle id="SN_301" type="car" route="r_1" depart="301" color="0,0,1"/>
    <vehicle id="WE_304" type="car" route="r_8" depart="304" />
    <vehicle id="SN_305" type="car" route="r_0" depart="305" color="0,0,1"/>
    <vehicle id="WE_319" type="car" route="r_6" depart="319" />
    <vehicle id="NS_320" type="car" route="r_9" depart="320" color="0,1,0"/>
    <vehicle id="EW_322" type="car" route="r_5" depart="322" color= "1,0,0"/>
    <vehicle id="NS_322" type="car" route="r_9" depart="322" color="0,1,0"/>
    <vehicle id="NS_333" type="car" route="r_9" depart="333" color="0,1,0"/>
    <vehicle id="WE_337" type="car" route="r_7" depart="337" />
    <vehicle id="WE_338" type="car" route="r_8" depart="338" />
    <vehicle id="NS_345" type="car" route="r_10" depart="345" color="0,1,0"/>
    <vehicle id="SN_352" type="car" route="r_2" depart="352" color="0,0,1"/>
    <vehicle id="WE_354" type="truck" route="r_6" depart="354" />
    <vehicle id="EW_355" type="truck" route="r_4" depart="355" color= "1,0,0"/>
    <vehicle id="NS_355" type="car" route="r_11" depart="355" color="0,1,0"/>
    <vehicle id="WE_357" type="car" route="r_7" depart="357" />
    <vehicle id="WE_360" type="car" route="r_7" depart="360" />
    <vehicle id="NS_360" type="truck" route="r_10" depart="360" color="0,1,0"/>
    <vehicle id="EW_361" type="car" route="r_4" depart="361" color= "1,0,0"/>
    <vehicle id="SN_362" type="car" route="r_1" depart="362" color="0,0,1"/>
    <vehicle id="NS_365" type="car" route="r_9" depart="365" color="0,1,0"/>
    <vehicle id="WE_367" type="car" route="r_7" depart="367" />
    <vehicle id="SN_373" type="car" route="r_0" depart="373" color="0,0,1"/>
    <vehicle id="NS_374" type="car" route="r_9" depart="374" color="0,1,0"/>
    <vehicle id="WE_377" type="truck" route="r_8" depart="377" />
    <vehicle id="EW_378" type="car" route="r_4" depart="378" color= "1,0,0"/>
    <vehicle id="WE_380" type="car" route="r_8" depart="380" />
    <vehicle id="SN_385" type="car" route="r_1" depart="385" color="0,0,1"/>
    <vehicle id="NS_387" type="car" route="r_11" depart="387" color="0,1,0"/>
    <vehicle id="NS_389" type="car" route="r_11" depart="389" color="0,1,0"/>
    <vehicle id="WE_394" type="car" route="r_7" depart="394" />
    <vehicle id="EW_395" type="car" route="r_5" depart="395" color= "1,0,0"/>
    <vehicle id="NS_395" type="truck" route="r_11" depart="395" color="0,1,0"/>
    <vehicle id="NS_398" type="car" route="r_10" depart="398" color="0,1,0"/>
    <vehicle id="SN_398" type="car" route="r_1" depart="398" color="0,0,1"/>
    <vehicle id="EW_400" type="car" route="r_5" depart="400" color= "1,0,0"/>
    <vehicle id="NS_410" type="car" route="r_11" depart="410" color="0,1,0"/>
    <vehicle id="WE_411" type="car" route="r_6" depart="411" />
    <vehicle id="SN_411" type="car" route="r_2" depart="411" color="0,0,1"/>
    <vehicle id="EW_413" type="truck" route="r_3" depart="413" color= "1,0,0"/>
    <vehicle id="SN_416" type="car" route="r_1" depart="416" color="0,0,1"/>
    <vehicle id="WE_420" type="car" route="r_6" depart="420" />
    <vehicle id="SN_424" type="car" route="r_0" depart="424" color="0,0,1"/>
    <vehicle id="WE_431" type="car" route="r_6" depart="431" />
    <vehicle id="EW_433" type="car" route="r_4" depart="433" color= "1,0,0"/>
    <vehicle id="SN_433" type="car" route="r_2" depart="433" color="0,0,1"/>
    <vehicle id="WE_434" type="car" route="r_7" depart="434" />
    <vehicle id="SN_435" type="car" route="r_2" depart="435" color="0,0,1"/>
    <vehicle id="NS_438" type="car" route="r_9" depart="438" color="0,1,0"/>
    <vehicle id="WE_439" type="car" route="r_6" depart="439" />
    <vehicle id="SN_441" type="car" route="r_0" depart="441" color="0,0,1"/>
    <vehicle id="SN_442" type="car" route="r_1" depart="442" color="0,0,1"/>
    <vehicle id="SN_443" type="car" route="r_1" depart="443" color="0,0,1"/>
    <vehicle id="SN_444" type="car" route="r_1" depart="444" color="0,0,1"/>
    <vehicle id="NS_448" type="car" route="r_11" depart="448" color="0,1,0"/>
    <vehicle id="NS_449" type="car" route="r_10" depart="449" color="0,1,0"/>
    <vehicle id="SN_450" type="car" route="r_2" depart="450" color="0,0,1"/>
    <vehicle id="EW_452" type="car" route="r_3" depart="452" color= "1,0,0"/>
    <vehicle id="EW_454" type="car" route="r_4" depart="454" color= "1,0,0"/>
    <vehicle id="NS_465" type="car" route="r_9" depart="465" color="0,1,0"/>
    <vehicle id="WE_467" type="truck" route="r_7" depart="467" />
    <vehicle id="SN_467" type="car" route="r_2" depart="467" color="0,0,1"/>
    <vehicle id="WE_470" type="truck" route="r_8" depart="470" />
    <vehicle id="WE_473" type="truck" route="r_8" depart="473" />
    <vehicle id="SN_474" type="car" route="r_2" depart="474" color="0,0,1"/>
    <vehicle id="EW_480" type="car" route="r_4" depart="480" color= "1,0,0"/>
    <vehicle id="EW_481" type="car" route="r_4" depart="481" color= "1,0,0"/>
    <vehicle id="SN_483" type="car" route="r_0" depart="483" color="0,0,1"/>
    <vehicle id="EW_484" type="car" route="r_4" depart="484" color= "1,0,0"/>
    <vehicle id="NS_484" type="car" route="r_9" depart="484" color="0,1,0"/>
    <vehicle id="EW_488" type="car" route="r_5" depart="488" color= "1,0,0"/>
    <vehicle id="EW_491" type="car" route="r_3" depart="491" color= "1,0,0"/>
    <vehicle id="SN_493" type="car" route="r_1" depart="493" color="0,0,1"/>
    <vehicle id="WE_495" type="car" route="r_6" depart="495" />
    <vehicle id="WE_498" type="truck" route="r_6" depart="498" />
    <vehicle id="WE_501" type="car" route="r_8" depart="501" />
    <vehicle id="SN_502" type="car" route="r_1" depart="502" color="0,0,1"/>
    <vehicle id="WE_505" type="car" route="r_7" depart="505" />
    <vehicle id="SN_506" type="car" route="r_1" depart="506" color="0,0,1"/>
    <vehicle id="NS_510" type="car" route="r_9" depart="510" color="0,1,0"/>
    <vehicle id="WE_515" type="car" route="r_8" depart="515" />
    <vehicle id="SN_515" type="car" route="r_2" depart="515" color="0,0,1"/>
    <vehicle id="SN_519" type="car" route="r_1" depart="519" color="0,0,1"/>
    <vehicle id="SN_521" type="car" route="r_0" depart="521" color="0,0,1"/>
    <vehicle id="SN_523" type="car" route="r_1" depart="523" color="0,0,1"/>
    <vehicle id="EW_524" type="car" route="r_3" depart="524" color= "1,0,0"/>
    <vehicle id="EW_531" type="car" route="r_3" depart="531" color= "1,0,0"/>
    <vehicle id="WE_533" type="car" route="r_7" depart="533" />
    <vehicle id="EW_535" type="car" route="r_5" depart="535" color= "1,0,0"/>
    <vehicle id="WE_536" type="car" route="r_7" depart="536" />
    <vehicle id="NS_540" type="truck" route="r_10" depart="540" color="0,1,0"/>
    <vehicle id="WE_542" type="car" route="r_7" depart="542" />
    <vehicle id="EW_543" type="car" route="r_3" depart="543" color= "1,0,0"/>
    <vehicle id="WE_551" type="car" route="r_6" depart="551" />
    <vehicle id="SN_557" type="car" route="r_2" depart="557" color="0,0,1"/>
    <vehicle id="NS_558" type="car" route="r_11" depart="558" color="0,1,0"/>
    <vehicle id="EW_560" type="car" route="r_4" depart="560" color= "1,0,0"/>
    <vehicle id="WE_561" type="car" route="r_6" depart="561" />
    <vehicle id="WE_563" type="car" route="r_7" depart="563" />
    <vehicle id="SN_563" type="car" route="r_2" depart="563" color="0,0,1"/>
    <vehicle id="EW_565" type="car" route="r_4" depart="565" color= "1,0,0"/>
    <vehicle id="EW_572" type="car" route="r_4" depart="572" color= "1,0,0"/>
    <vehicle id="NS_572" type="car" route="r_9" depart="572" color="0,1,0"/>
    <vehicle id="WE_574" type="car" route="r_8" depart="574" />
    <vehicle id="EW_574" type="car" route="r_3" depart="574" color= "1,0,0"/>
    <vehicle id="NS_576" type="car" route="r_11" depart="576" color="0,1,0"/>
    <vehicle id="EW_578" type="car" route="r_3" depart="578" color= "1,0,0"/>
    <vehicle id="SN_578" type="car" route="r_2" depart="578" color="0,0,1"/>
    <vehicle id="SN_580" type="truck" route="r_1" depart="580" color="0,0,1"/>
    <vehicle id="EW_581" type="car" route="r_3" depart="581" color= "1,0,0"/>
    <vehicle id="EW_582" type="car" route="r_5" depart="582" color= "1,0,0"/>
    <vehicle id="WE_583" type="car" route="r_8" depart="583" />
    <vehicle id="SN_586" type="car" route="r_0" depart="586" color="0,0,1"/>
    <vehicle id="SN_591" type="car" route="r_2" depart="591" color="0,0,1"/>
    <vehicle id="EW_599" type="car" route="r_4" depart="599" color= "1,0,0"/>
    <vehicle id="SN_600" type="truck" route="r_2" depart="600" color="0,0,1"/>
    <vehicle id="NS_601" type="car" route="r_9" depart="601" color="0,1,0"/>
    <vehicle id="SN_605" type="car" route="r_0" depart="605" color="0,0,1"/>
    <vehicle id="WE_610" type="car" route="r_7" depart="610" />
    <vehicle id="NS_612" type="car" route="r_9" depart="612" color="0,1,0"/>
    <vehicle id="EW_615" type="truck" route="r_5" depart="615" color= "1,0,0"/>
    <vehicle id="NS_615" type="truck" route="r_11" depart="615" color="0,1,0"/>
    <vehicle id="EW_619" type="truck" route="r_4" depart="619" color= "1,0,0"/>
    <vehicle id="EW_621" type="car" route="r_5" depart="621" color= "1,0,0"/>
    <vehicle id="NS_621" type="car" route="r_11" depart="621" color="0,1,0"/>
    <vehicle id="WE_624" type="car" route="r_6" depart="624" />
    <vehicle id="EW_624" type="car" route="r_5" depart="624" color= "1,0,0"/>
    <vehicle id="SN_630" type="car" route="r_1" depart="630" color="0,0,1"/>
    <vehicle id="WE_631" type="car" route="r_7" depart="631" />
    <vehicle id="NS_631" type="car" route="r_9" depart="631" color="0,1,0"/>
    <vehicle id="SN_637" type="car" route="r_0" depart="637" color="0,0,1"/>
    <vehicle id="WE_640" type="car" route="r_7" depart="640" />
    <vehicle id="NS_640" type="car" route="r_9" depart="640" color="0,1,0"/>
    <vehicle id="SN_645" type="car" route="r_1" depart="645" color="0,0,1"/>
    <vehicle id="EW_646" type="car" route="r_4" depart="646" color= "1,0,0"/>
    <vehicle id="WE_647" type="car" route="r_7" depart="647" />
    <vehicle id="SN_652" type="car" route="r_2" depart="652" color="0,0,1"/>
    <vehicle id="NS_653" type="car" route="r_10" depart="653" color="0,1,0"/>
    <vehicle id="WE_654" type="truck" route="r_7" depart="654" />
    <vehicle id="WE_660" type="car" route="r_7" depart="660" />
    <vehicle id="WE_663" type="car" route="r_8" depart="663" />
    <vehicle id="EW_663" type="car" route="r_3" depart="663" color= "1,0,0"/>
    <vehicle id="WE_664" type="car" route="r_8" depart="664" />
    <vehicle id="NS_667" type="car" route="r_10" depart="667" color="0,1,0"/>
    <vehicle id="SN_668" type="car" route="r_2" depart="668" color="0,0,1"/>
    <vehicle id="WE_680" type="car" route="r_8" depart="680" />
    <vehicle id="EW_680" type="car" route="r_3" depart="680" color= "1,0,0"/>
    <vehicle id="NS_684" type="car" route="r_11" depart="684" color="0,1,0"/>
    <vehicle id="EW_687" type="car" route="r_5" depart="687" color= "1,0,0"/>
    <vehicle id="NS_689" type="car" route="r_11" depart="689" color="0,1,0"/>
    <vehicle id="EW_690" type="car" route="r_4" depart="690" color= "1,0,0"/>
    <vehicle id="NS_693" type="car" route="r_11" depart="693" color="0,1,0"/>
    <vehicle id="WE_696" type="car" route="r_8" depart="696" />
    <vehicle id="SN_703" type="car" route="r_1" depart="703" color="0,0,1"/>
    <vehicle id="EW_710" type="truck" route="r_5" depart="710" color= "1,0,0"/>
    <vehicle id="EW_711" type="car" route="r_4" depart="711" color= "1,0,0"/>
    <vehicle id="EW_715" type="car" route="r_3" depart="715" color= "1,0,0"/>
    <vehicle id="SN_716" type="car" route="r_1" depart="716" color="0,0,1"/>
    <vehicle id="SN_718" type="car" route="r_0" depart="718" color="0,0,1"/>
    <vehicle id="NS_721" type="car" route="r_10" depart="721" color="0,1,0"/>
    <vehicle id="EW_723" type="car" route="r_3" depart="723" color= "1,0,0"/>
    <vehicle id="SN_729" type="car" route="r_2" depart="729" color="0,0,1"/>
    <vehicle id="EW_731" type="car" route="r_5" depart="731" color= "1,0,0"/>
    <vehicle id="WE_737" type="car" route="r_7" depart="737" />
    <vehicle id="WE_739" type="car" route="r_7" depart="739" />
    <vehicle id="SN_745" type="car" route="r_0" depart="745" color="0,0,1"/>
    <vehicle id="EW_747" type="truck" route="r_4" depart="747" color= "1,0,0"/>
    <vehicle id="WE_751" type="car" route="r_7" depart="751" />
    <vehicle id="EW_753" type="car" route="r_4" depart="753" color= "1,0,0"/>
    <vehicle id="NS_754" type="car" route="r_9" depart="754" color="0,1,0"/>
    <vehicle id="WE_755" type="car" route="r_7" depart="755" />
    <vehicle id="WE_762" type="car" route="r_7" depart="762" />
    <vehicle id="EW_765" type="car" route="r_5" depart="765" color= "1,0,0"/>
    <vehicle id="SN_771" type="truck" route="r_1" depart="771" color="0,0,1"/>
    <vehicle id="NS_772" type="car" route="r_9" depart="772" color="0,1,0"/>
    <vehicle id="SN_772" type="car" route="r_2" depart="772" color="0,0,1"/>
    <vehicle id="WE_773" type="truck" route="r_6" depart="773" />
    <vehicle id="NS_775" type="car" route="r_10" depart="775" color="0,1,0"/>
    <vehicle id="NS_776" type="car" route="r_9" depart="776" color="0,1,0"/>
    <vehicle id="WE_781" type="car" route="r_6" depart="781" />
    <vehicle id="SN_781" type="car" route="r_1" depart="781" color="0,0,1"/>
    <vehicle id="WE_783" type="car" route="r_7" depart="783" />
    <vehicle id="NS_792" type="car" route="r_10" depart="792" color="0,1,0"/>
    <vehicle id="NS_797" type="car" route="r_9" depart="797" color="0,1,0"/>
    <vehicle id="WE_800" type="car" route="r_6" depart="800" />
    <vehicle id="EW_800" type="car" route="r_5" depart="800" color= "1,0,0"/>
    <vehicle id="SN_800" type="car" route="r_0" depart="800" color="0,0,1"/>
    <vehicle id="SN_802" type="car" route="r_2" depart="802" color="0,0,1"/>
    <vehicle id="NS_804" type="car" route="r_10" depart="804" color="0,1,0"/>
    <vehicle id="EW_805" type="car" route="r_4" depart="805" color= "1,0,0"/>
    <vehicle id="SN_808" type="car" route="r_1" depart="808" color="0,0,1"/>
    <vehicle id="NS_809" type="car" route="r_10" depart="809" color="0,1,0"/>
    <vehicle id="WE_810" type="car" route="r_7" depart="810" />
    <vehicle id="WE_811" type="truck" route="r_6" depart="811" />
    <vehicle id="SN_811" type="car" route="r_2" depart="811" color="0,0,1"/>
    <vehicle id="EW_815" type="car" route="r_5" depart="815" color= "1,0,0"/>
    <vehicle id="SN_816" type="car" route="r_2" depart="816" color="0,0,1"/>
    <vehicle id="EW_818" type="car" route="r_5" depart="818" color= "1,0,0"/>
    <vehicle id="SN_820" type="car" route="r_2" depart="820" color="0,0,1"/>
    <vehicle id="NS_826" type="car" route="r_9" depart="826" color="0,1,0"/>
    <vehicle id="EW_829" type="car" route="r_4" depart="829" color= "1,0,0"/>
    <vehicle id="WE_836" type="car" route="r_8" depart="836" />
    <vehicle id="NS_837" type="car" route="r_9" depart="837" color="0,1,0"/>
    <vehicle id="WE_839" type="car" route="r_7" depart="839" />
    <vehicle id="NS_847" type="car" route="r_11" depart="847" color="0,1,0"/>
    <vehicle id="SN_854" type="car" route="r_1" depart="854" color="0,0,1"/>
    <vehicle id="NS_858" type="car" route="r_10" depart="858" color="0,1,0"/>
    <vehicle id="SN_858" type="car" route="r_1" depart="858" color="0,0,1"/>
    <vehicle id="SN_861" type="car" route="r_2" depart="861" color="0,0,1"/>
    <vehicle id="NS_863" type="truck" route="r_11" depart="863" color="0,1,0"/>
    <vehicle id="SN_865" type="car" route="r_1" depart="865" color="0,0,1"/>
    <vehicle id="SN_868" type="car" route="r_0" depart="868" color="0,0,1"/>
    <vehicle id="NS_869" type="car" route="r_9" depart="869" color="0,1,0"/>
    <vehicle id="WE_871" type="car" route="r_6" depart="871" />
    <vehicle id="EW_872" type="car" route="r_4" depart="872" color= "1,0,0"/>
    <vehicle id="NS_880" type="car" route="r_10" depart="880" color="0,1,0"/>
    <vehicle id="WE_881" type="car" route="r_7" depart="881" />
    <vehicle id="EW_881" type="car" route="r_4" depart="881" color= "1,0,0"/>
    <vehicle id="EW_883" type="car" route="r_3" depart="883" color= "1,0,0"/>
    <vehicle id="SN_884" type="car" route="r_1" depart="884" color="0,0,1"/>
    <vehicle id="NS_885" type="car" route="r_10" depart="885" color="0,1,0"/>
    <vehicle id="NS_888" type="car" route="r_10" depart="888" color="0,1,0"/>
    <vehicle id="WE_893" type="car" route="r_7" depart="893" />
    <vehicle id="NS_905" type="truck" route="r_10" depart="905" color="0,1,0"/>
    <vehicle id="WE_906" type="car" route="r_6" depart="906" />
    <vehicle id="NS_909" type="car" route="r_10" depart="909" color="0,1,0"/>
    <vehicle id="EW_911" type="car" route="r_3" depart="911" color= "1,0,0"/>
    <vehicle id="EW_912" type="car" route="r_4" depart="912" color= "1,0,0"/>
    <vehicle id="WE_917" type="truck" route="r_8" depart="917" />
    <vehicle id="WE_919" type="car" route="r_7" depart="919" />
    <vehicle id="WE_922" type="car" route="r_7" depart="922" />
    <vehicle id="NS_925" type="car" route="r_10" depart="925" color="0,1,0"/>
    <vehicle id="SN_927" type="car" route="r_1" depart="927" color="0,0,1"/>
    <vehicle id="WE_929" type="car" route="r_7" depart="929" />
    <vehicle id="WE_938" type="car" route="r_8" depart="938" />
    <vehicle id="EW_938" type="car" route="r_3" depart="938" color= "1,0,0"/>
    <vehicle id="WE_940" type="car" route="r_6" depart="940" />
    <vehicle id="SN_943" type="car" route="r_1" depart="943" color="0,0,1"/>
    <vehicle id="EW_944" type="car" route="r_5" depart="944" color= "1,0,0"/>
    <vehicle id="EW_947" type="car" route="r_4" depart="947" color= "1,0,0"/>
    <vehicle id="NS_948" type="car" route="r_10" depart="948" color="0,1,0"/>
    <vehicle id="WE_951" type="car" route="r_8" depart="951" />
    <vehicle id="SN_951" type="car" route="r_1" depart="951" color="0,0,1"/>
    <vehicle id="WE_953" type="car" route="r_6" depart="953" />
    <vehicle id="WE_956" type="car" route="r_8" depart="956" />
    <vehicle id="SN_957" type="car" route="r_0" depart="957" color="0,0,1"/>
    <vehicle id="SN_958" type="car" route="r_2" depart="958" color="0,0,1"/>
    <vehicle id="SN_960" type="car" route="r_2" depart="960" color="0,0,1"/>
    <vehicle id="SN_961" type="car" route="r_2" depart="961" color="0,0,1"/>
    <vehicle id="EW_962" type="car" route="r_4" depart="962" color= "1,0,0"/>
    <vehicle id="NS_963" type="car" route="r_9" depart="963" color="0,1,0"/>
    <vehicle id="NS_965" type="car" route="r_9" depart="965" color="0,1,0"/>
    <vehicle id="WE_966" type="car" route="r_6" depart="966" />
    <vehicle id="EW_966" type="car" route="r_5" depart="966" color= "1,0,0"/>
    <vehicle id="WE_967" type="car" route="r_8" depart="967" />
    <vehicle id="NS_967" type="car" route="r_10" depart="967" color="0,1,0"/>
    <vehicle id="NS_970" type="car" route="r_11" depart="970" color="0,1,0"/>
    <vehicle id="NS_972" type="truck" route="r_9" depart="972" color="0,1,0"/>
    <vehicle id="EW_974" type="car" route="r_3" depart="974" color= "1,0,0"/>
    <vehicle id="EW_976" type="car" route="r_4" depart="976" color= "1,0,0"/>
    <vehicle id="EW_979" type="car" route="r_5" depart="979" color= "1,0,0"/>
    <vehicle id="NS_981" type="car" route="r_10" depart="981" color="0,1,0"/>
    <vehicle id="WE_982" type="truck" route="r_7" depart="982" />
    <vehicle id="NS_982" type="car" route="r_10" depart="982" color="0,1,0"/>
    <vehicle id="EW_990" type="car" route="r_3" depart="990" color= "1,0,0"/>
    <vehicle id="NS_991" type="car" route="r_11" depart="991" color="0,1,0"/>
    <vehicle id="WE_992" type="car" route="r_7" depart="992" />
    <vehicle id="NS_997" type="car" route="r_10" depart="997" color="0,1,0"/>
    <vehicle id="SN_998" type="car" route="r_0" depart="998" color="0,0,1"/>
    <vehicle id="WE_1000" type="car" route="r_8" depart="1000" />