<routes>
        <vType id="car" vClass="passenger" length="4" maxSpeed="25.0" accel="2.6" decel="4.5"/>
        <vType id="truck" vClass="truck" length="10" maxSpeed="20.0" accel="1.2" decel="2.5"/>

        <route id="r_0" edges="3i 1o"/>
        <route id="r_1" edges="3i 4o"/>
        <route id="r_10" edges="2i 3o"/>
        <route id="r_11" edges="2i 4o"/>
        <route id="r_2" edges="3i 2o"/>
        <route id="r_3" edges="4i 3o"/>
        <route id="r_4" edges="4i 2o"/>
        <route id="r_5" edges="4i 1o"/>
        <route id="r_6" edges="1i 2o"/>
        <route id="r_7" edges="1i 4o"/>
        <route id="r_8" edges="1i 3o"/>
        <route id="r_9" edges="2i 1o"/>
    <vehicle id="WE_13" type="car" route="r_8" depart="13" />
    <vehicle id="NS_18" type="car" route="r_11" depart="18" color="0,1,0"/>
    <vehicle id="NS_20" type="car" route="r_9" depart="20" color="0,1,0"/>
    <vehicle id="NS_24" type="car" route="r_9" depart="24" color="0,1,0"/>
    <vehicle id="SN_24" type="car" route="r_0" depart="24" color="0,0,1"/>
    <vehicle id="SN_29" type="car" route="r_1" depart="29" color="0,0,1"/>
    <vehicle id="WE_33" type="truck" route="r_7" depart="33" />
    <vehicle id="WE_35" type="car" route="r_6" depart="35" />
    <vehicle id="NS_47" type="truck" route="r_11" depart="47" color="0,1,0"/>
    <vehicle id="EW_49" type="car" route="r_5" depart="49" color= "1,0,0"/>
    <vehicle id="SN_51" type="car" route="r_2" depart="51" color="0,0,1"/>
    <vehicle id="WE_52" type="car" route="r_7" depart="52" />
    <vehicle id="WE_58" type="car" route="r_8" depart="58" />
    <vehicle id="NS_58" type="car" route="r_11" depart="58" color="0,1,0"/>
    <vehicle id="WE_59" type="car" route="r_7" depart="59" />
    <vehicle id="NS_59" type="truck" route="r_10" depart="59" color="0,1,0"/>
    <vehicle id="NS_62" type="truck" route="r_9" depart="62" color="0,1,0"/>
    <vehicle id="WE_63" type="car" route="r_6" depart="63" />
    <vehicle id="WE_65" type="car" route="r_8" depart="65" />
    <vehicle id="WE_67" type="car" route="r_7" depart="67" />
    <vehicle id="EW_69" type="car" route="r_5" depart="69" color= "1,0,0"/>
    <vehicle id="SN_70" type="car" route="r_0" depart="70" color="0,0,1"/>
    <vehicle id="NS_72" type="car" route="r_10" depart="72" color="0,1,0"/>
    <vehicle id="NS_73" type="car" route="r_11" depart="73" color="0,1,0"/>
    <vehicle id="NS_74" type="car" route="r_11" depart="74" color="0,1,0"/>
    <vehicle id="WE_79" type="car" route="r_8" depart="79" />
    <vehicle id="SN_80" type="car" route="r_2" depart="80" color="0,0,1"/>
    <vehicle id="NS_83" type="truck" route="r_9" depart="83" color="0,1,0"/>
    <vehicle id="EW_88" type="car" route="r_4" depart="88" color= "1,0,0"/>
    <vehicle id="EW_90" type="car" route="r_4" depart="90" color= "1,0,0"/>
    <vehicle id="WE_93" type="car" route="r_8" depart="93" />
    <vehicle id="EW_94" type="car" route="r_5" depart="94" color= "1,0,0"/>
    <vehicle id="SN_95" type="car" route="r_1" depart="95" color="0,0,1"/>
    <vehicle id="NS_96" type="car" route="r_9" depart="96" color="0,1,0"/>
    <vehicle id="WE_97" type="car" route="r_8" depart="97" />
    <vehicle id="WE_98" type="car" route="r_8" depart="98" />
    <vehicle id="NS_99" type="car" route="r_11" depart="99" color="0,1,0"/>
    <vehicle id="EW_101" type="car" route="r_5" depart="101" color= "1,0,0"/>
    <vehicle id="NS_102" type="car" route="r_11" depart="102" color="0,1,0"/>
    <vehicle id="EW_105" type="car" route="r_4" depart="105" color= "1,0,0"/>
    <vehicle id="EW_110" type="car" route="r_3" depart="110" color= "1,0,0"/>
    <vehicle id="SN_110" type="car" route="r_2" depart="110" color="0,0,1"/>
    <vehicle id="NS_115" type="car" route="r_10" depart="115" color="0,1,0"/>
    <vehicle id="EW_118" type="car" route="r_3" depart="118" color= "1,0,0"/>
    <vehicle id="WE_120" type="car" route="r_7" depart="120" />
    <vehicle id="EW_121" type="car" route="r_5" depart="121" color= "1,0,0"/>
    <vehicle id="NS_121" type="car" route="r_11" depart="121" color="0,1,0"/>
    <vehicle id="WE_123" type="car" route="r_8" depart="123" />
    <vehicle id="NS_124" type="car" route="r_9" depart="124" color="0,1,0"/>
    <vehicle id="WE_127" type="car" route="r_7" depart="127" />
    <vehicle id="NS_127" type="truck" route="r_10" depart="127" color="0,1,0"/>
    <vehicle id="WE_129" type="car" route="r_8" depart="129" />
    <vehicle id="NS_133" type="car" route="r_11" depart="133" color="0,1,0"/>
    <vehicle id="WE_134" type="car" route="r_8" depart="134" />
    <vehicle id="SN_134" type="car" route="r_2" depart="134" color="0,0,1"/>
    <vehicle id="SN_137" type="car" route="r_0" depart="137" color="0,0,1"/>
    <vehicle id="NS_141" type="car" route="r_11" depart="141" color="0,1,0"/>
    <vehicle id="EW_144" type="car" route="r_5" depart="144" color= "1,0,0"/>
    <vehicle id="EW_148" type="car" route="r_5" depart="148" color= "1,0,0"/>
    <vehicle id="NS_148" type="car" route="r_11" depart="148" color="0,1,0"/>
    <vehicle id="EW_150" type="car" route="r_5" depart="150" color= "1,0,0"/>
    <vehicle id="WE_153" type="car" route="r_7" depart="153" />
    <vehicle id="SN_153" type="car" route="r_1" depart="153" color="0,0,1"/>
    <vehicle id="SN_154" type="car" route="r_2" depart="154" color="0,0,1"/>
    <vehicle id="EW_156" type="truck" route="r_3" depart="156" color= "1,0,0"/>
    <vehicle id="NS_156" type="car" route="r_11" depart="156" color="0,1,0"/>
    <vehicle id="WE_159" type="car" route="r_7" depart="159" />
    <vehicle id="EW_161" type="car" route="r_5" depart="161" color= "1,0,0"/>
    <vehicle id="NS_161" type="car" route="r_10" depart="161" color="0,1,0"/>
    <vehicle id="SN_161" type="car" route="r_2" depart="161" color="0,0,1"/>
    <vehicle id="WE_163" type="car" route="r_7" depart="163" />
    <vehicle id="EW_163" type="car" route="r_4" depart="163" color= "1,0,0"/>
    <vehicle id="NS_169" type="car" route="r_11" depart="169" color="0,1,0"/>
    <vehicle id="SN_171" type="car" route="r_2" depart="171" color="0,0,1"/>
    <vehicle id="WE_172" type="car" route="r_6" depart="172" />
    <vehicle id="WE_173" type="car" route="r_8" depart="173" />
    <vehicle id="WE_176" type="truck" route="r_8" depart="176" />
    <vehicle id="EW_177" type="car" route="r_3" depart="177" color= "1,0,0"/>
    <vehicle id="WE_179" type="car" route="r_6" depart="179" />
    <vehicle id="NS_180" type="car" route="r_9" depart="180" color="0,1,0"/>
    <vehicle id="WE_181" type="car" route="r_8" depart="181" />
    <vehicle id="WE_183" type="car" route="r_7" depart="183" />
    <vehicle id="WE_184" type="car" route="r_6" depart="184" />
    <vehicle id="NS_184" type="car" route="r_11" depart="184" color="0,1,0"/>
    <vehicle id="SN_189" type="car" route="r_2" depart="189" color="0,0,1"/>
    <vehicle id="SN_191" type="car" route="r_2" depart="191" color="0,0,1"/>
    <vehicle id="EW_193" type="car" route="r_5" depart="193" color= "1,0,0"/>
    <vehicle id="SN_194" type="car" route="r_2" depart="194" color="0,0,1"/>
    <vehicle id="EW_195" type="car" route="r_3" depart="195" color= "1,0,0"/>
    <vehicle id="WE_203" type="car" route="r_6" depart="203" />
    <vehicle id="SN_203" type="car" route="r_1" depart="203" color="0,0,1"/>
    <vehicle id="WE_205" type="car" route="r_7" depart="205" />
    <vehicle id="EW_206" type="car" route="r_4" depart="206" color= "1,0,0"/>
    <vehicle id="NS_207" type="car" route="r_11" depart="207" color="0,1,0"/>
    <vehicle id="WE_212" type="car" route="r_8" depart="212" />
    <vehicle id="EW_215" type="car" route="r_5" depart="215" color= "1,0,0"/>
    <vehicle id="EW_218" type="car" route="r_4" depart="218" color= "1,0,0"/>
    <vehicle id="NS_223" type="car" route="r_10" depart="223" color="0,1,0"/>
    <vehicle id="EW_228" type="car" route="r_3" depart="228" color= "1,0,0"/>
    <vehicle id="EW_229" type="car" route="r_4" depart="229" color= "1,0,0"/>
    <vehicle id="SN_231" type="car" route="r_2" depart="231" color="0,0,1"/>
    <vehicle id="NS_234" type="car" route="r_10" depart="234" color="0,1,0"/>
    <vehicle id="NS_236" type="car" route="r_11" depart="236" color="0,1,0"/>
    <vehicle id="NS_249" type="car" route="r_11" depart="249" color="0,1,0"/>
    <vehicle id="SN_251" type="car" route="r_0" depart="251" color="0,0,1"/>
    <vehicle id="SN_254" type="car" route="r_1" depart="254" color="0,0,1"/>
    <vehicle id="WE_258" type="car" route="r_6" depart="258" />
    <vehicle id="NS_267" type="car" route="r_9" depart="267" color="0,1,0"/>
    <vehicle id="WE_268" type="car" route="r_7" depart="268" />
    <vehicle id="EW_268" type="car" route="r_4" depart="268" color= "1,0,0"/>
    <vehicle id="SN_274" type="car" route="r_1" depart="274" color="0,0,1"/>
    <vehicle id="WE_277" type="car" route="r_8" depart="277" />
    <vehicle id="WE_280" type="car" route="r_7" depart="280" />
    <vehicle id="SN_286" type="car" route="r_0" depart="286" color="0,0,1"/>
    <vehicle id="WE_287" type="car" route="r_8" depart="287" />
    <vehicle id="SN_287" type="car" route="r_2" depart="287" color="0,0,1"/>
    <vehicle id="EW_292" type="car" route="r_5" depart="292" color= "1,0,0"/>
    <vehicle id="NS_292" type="car" route="r_11" depart="292" color="0,1,0"/>
    <vehicle id="NS_295" type="car" route="r_9" depart="295" color="0,1,0"/>
    <vehicle id="SN_297" type="car" route="r_2" depart="297" color="0,0,1"/>
    <vehicle id="WE_298" type="car" route="r_6" depart="298" />
    <vehicle id="SN_304" type="car" route="r_2" depart="304" color="0,0,1"/>
    <vehicle id="EW_308" type="car" route="r_5" depart="308" color= "1,0,0"/>
    <vehicle id="WE_309" type="car" route="r_6" depart="309" />
    <vehicle id="NS_312" type="car" route="r_10" depart="312" color="0,1,0"/>
    <vehicle id="SN_312" type="car" route="r_1" depart="312" color="0,0,1"/>
    <vehicle id="NS_314" type="car" route="r_9" depart="314" color="0,1,0"/>
    <vehicle id="NS_315" type="car" route="r_11" depart="315" color="0,1,0"/>
    <vehicle id="EW_318" type="car" route="r_5" depart="318" color= "1,0,0"/>
    <vehicle id="WE_319" type="car" route="r_6" depart="319" />
    <vehicle id="SN_320" type="car" route="r_0" depart="320" color="0,0,1"/>
    <vehicle id="WE_322" type="car" route="r_6" depart="322" />
    <vehicle id="EW_322" type="car" route="r_5" depart="322" color= "1,0,0"/>
    <vehicle id="NS_322" type="car" route="r_10" depart="322" color="0,1,0"/>
    <vehicle id="SN_323" type="car" route="r_1" depart="323" color="0,0,1"/>
    <vehicle id="SN_324" type="car" route="r_1" depart="324" color="0,0,1"/>
    <vehicle id="WE_327" type="car" route="r_6" depart="327" />
    <vehicle id="EW_327" type="car" route="r_3" depart="327" color= "1,0,0"/>
    <vehicle id="NS_327" type="car" route="r_9" depart="327" color="0,1,0"/>
    <vehicle id="SN_327" type="car" route="r_1" depart="327" color="0,0,1"/>
    <vehicle id="NS_330" type="car" route="r_9" depart="330" color="0,1,0"/>
    <vehicle id="SN_330" type="car" route="r_1" depart="330" color="0,0,1"/>
    <vehicle id="WE_331" type="car" route="r_6" depart="331" />
    <vehicle id="NS_332" type="car" route="r_10" depart="332" color="0,1,0"/>
    <vehicle id="EW_336" type="car" route="r_4" depart="336" color= "1,0,0"/>
    <vehicle id="SN_337" type="car" route="r_0" depart="337" color="0,0,1"/>
    <vehicle id="NS_338" type="car" route="r_11" depart="338" color="0,1,0"/>
    <vehicle id="WE_340" type="car" route="r_8" depart="340" />
    <vehicle id="EW_345" type="car" route="r_3" depart="345" color= "1,0,0"/>
    <vehicle id="WE_352" type="car" route="r_8" depart="352" />
    <vehicle id="SN_355" type="car" route="r_2" depart="355" color="0,0,1"/>
    <vehicle id="EW_356" type="car" route="r_4" depart="356" color= "1,0,0"/>
    <vehicle id="SN_357" type="car" route="r_0" depart="357" color="0,0,1"/>
    <vehicle id="SN_359" type="car" route="r_2" depart="359" color="0,0,1"/>
    <vehicle id="NS_362" type="car" route="r_10" depart="362" color="0,1,0"/>
    <vehicle id="SN_362" type="car" route="r_2" depart="362" color="0,0,1"/>
    <vehicle id="WE_372" type="car" route="r_6" depart="372" />
    <vehicle id="NS_372" type="car" route="r_11" depart="372" color="0,1,0"/>
    <vehicle id="WE_377" type="truck" route="r_6" depart="377" />
    <vehicle id="SN_379" type="truck" route="r_1" depart="379" color="0,0,1"/>
    <vehicle id="EW_382" type="car" route="r_5" depart="382" color= "1,0,0"/>
    <vehicle id="WE_384" type="car" route="r_7" depart="384" />
    <vehicle id="WE_386" type="car" route="r_6" depart="386" />
    <vehicle id="EW_387" type="truck" route="r_4" depart="387" color= "1,0,0"/>
    <vehicle id="WE_390" type="car" route="r_7" depart="390" />
    <vehicle id="EW_390" type="car" route="r_4" depart="390" color= "1,0,0"/>
    <vehicle id="SN_391" type="car" route="r_2" depart="391" color="0,0,1"/>
    <vehicle id="NS_393" type="car" route="r_10" depart="393" color="0,1,0"/>
    <vehicle id="WE_395" type="car" route="r_6" depart="395" />
    <vehicle id="EW_397" type="car" route="r_5" depart="397" color= "1,0,0"/>
    <vehicle id="SN_397" type="car" route="r_1" depart="397" color="0,0,1"/>
    <vehicle id="WE_402" type="car" route="r_6" depart="402" />
    <vehicle id="EW_402" type="car" route="r_4" depart="402" color= "1,0,0"/>
    <vehicle id="SN_403" type="car" route="r_1" depart="403" color="0,0,1"/>
    <vehicle id="WE_406" type="car" route="r_7" depart="406" />
    <vehicle id="EW_407" type="car" route="r_5" depart="407" color= "1,0,0"/>
    <vehicle id="NS_413" type="car" route="r_11" depart="413" color="0,1,0"/>
    <vehicle id="EW_418" type="car" route="r_5" depart="418" color= "1,0,0"/>
    <vehicle id="SN_419" type="car" route="r_0" depart="419" color="0,0,1"/>
    <vehicle id="SN_425" type="car" route="r_2" depart="425" color="0,0,1"/>
    <vehicle id="WE_429" type="car" route="r_7" depart="429" />
    <vehicle id="SN_436" type="car" route="r_1" depart="436" color="0,0,1"/>
    <vehicle id="WE_437" type="car" route="r_7" depart="437" />
    <vehicle id="WE_438" type="car" route="r_8" depart="438" />
    <vehicle id="EW_438" type="car" route="r_5" depart="438" color= "1,0,0"/>
    <vehicle id="WE_445" type="car" route="r_7" depart="445" />
    <vehicle id="SN_449" type="car" route="r_1" depart="449" color="0,0,1"/>
    <vehicle id="EW_452" type="car" route="r_3" depart="452" color= "1,0,0"/>
    <vehicle id="SN_455" type="car" route="r_1" depart="455" color="0,0,1"/>
    <vehicle id="WE_457" type="car" route="r_6" depart="457" />
    <vehicle id="EW_457" type="car" route="r_3" depart="457" color= "1,0,0"/>
    <vehicle id="SN_459" type="car" route="r_0" depart="459" color="0,0,1"/>
    <vehicle id="WE_460" type="car" route="r_6" depart="460" />
    <vehicle id="WE_461" type="car" route="r_7" depart="461" />
    <vehicle id="NS_464" type="car" route="r_10" depart="464" color="0,1,0"/>
    <vehicle id="EW_468" type="car" route="r_3" depart="468" color= "1,0,0"/>
    <vehicle id="WE_472" type="car" route="r_8" depart="472" />
    <vehicle id="NS_472" type="car" route="r_11" depart="472" color="0,1,0"/>
    <vehicle id="EW_473" type="truck" route="r_5" depart="473" color= "1,0,0"/>
    <vehicle id="EW_476" type="car" route="r_3" depart="476" color= "1,0,0"/>
    <vehicle id="WE_486" type="car" route="r_6" depart="486" />
    <vehicle id="NS_494" type="car" route="r_11" depart="494" color="0,1,0"/>
    <vehicle id="SN_496" type="car" route="r_0" depart="496" color="0,0,1"/>
    <vehicle id="SN_497" type="car" route="r_2" depart="497" color="0,0,1"/>
    <vehicle id="SN_498" type="car" route="r_0" depart="498" color="0,0,1"/>
    <vehicle id="NS_503" type="car" route="r_10" depart="503" color="0,1,0"/>
    <vehicle id="WE_507" type="car" route="r_8" depart="507" />
    <vehicle id="NS_508" type="car" route="r_9" depart="508" color="0,1,0"/>
    <vehicle id="WE_511" type="car" route="r_6" depart="511" />
    <vehicle id="WE_513" type="car" route="r_6" depart="513" />
    <vehicle id="WE_520" type="car" route="r_8" depart="520" />
    <vehicle id="WE_521" type="car" route="r_7" depart="521" />
    <vehicle id="SN_521" type="car" route="r_2" depart="521" color="0,0,1"/>
    <vehicle id="NS_522" type="car" route="r_10" depart="522" color="0,1,0"/>
    <vehicle id="SN_524" type="car" route="r_0" depart="524" color="0,0,1"/>
    <vehicle id="EW_528" type="car" route="r_3" depart="528" color= "1,0,0"/>
    <vehicle id="WE_532" type="car" route="r_7" depart="532" />
    <vehicle id="NS_536" type="car" route="r_11" depart="536" color="0,1,0"/>
    <vehicle id="NS_537" type="car" route="r_11" depart="537" color="0,1,0"/>
    <vehicle id="EW_538" type="car" route="r_4" depart="538" color= "1,0,0"/>
    <vehicle id="NS_539" type="car" route="r_10" depart="539" color="0,1,0"/>
    <vehicle id="EW_540" type="car" route="r_5" depart="540" color= "1,0,0"/>
    <vehicle id="NS_540" type="car" route="r_11" depart="540" color="0,1,0"/>
    <vehicle id="SN_541" type="car" route="r_1" depart="541" color="0,0,1"/>
    <vehicle id="WE_542" type="car" route="r_8" depart="542" />
    <vehicle id="SN_543" type="car" route="r_1" depart="543" color="0,0,1"/>
    <vehicle id="SN_547" type="car" route="r_1" depart="547" color="0,0,1"/>
    <vehicle id="EW_548" type="car" route="r_4" depart="548" color= "1,0,0"/>
    <vehicle id="EW_553" type="truck" route="r_5" depart="553" color= "1,0,0"/>
    <vehicle id="WE_554" type="car" route="r_6" depart="554" />
    <vehicle id="EW_555" type="car" route="r_5" depart="555" color= "1,0,0"/>
    <vehicle id="EW_560" type="car" route="r_3" depart="560" color= "1,0,0"/>
    <vehicle id="WE_562" type="car" route="r_8" depart="562" />
    <vehicle id="SN_565" type="car" route="r_1" depart="565" color="0,0,1"/>
    <vehicle id="EW_569" type="car" route="r_5" depart="569" color= "1,0,0"/>
    <vehicle id="NS_570" type="car" route="r_11" depart="570" color="0,1,0"/>
    <vehicle id="EW_572" type="car" route="r_4" depart="572" color= "1,0,0"/>
    <vehicle id="NS_574" type="car" route="r_11" depart="574" color="0,1,0"/>
    <vehicle id="NS_578" type="car" route="r_10" depart="578" color="0,1,0"/>
    <vehicle id="EW_582" type="car" route="r_3" depart="582" color= "1,0,0"/>
    <vehicle id="NS_584" type="car" route="r_9" depart="584" color="0,1,0"/>
    <vehicle id="SN_590" type="car" route="r_0" depart="590" color="0,0,1"/>
    <vehicle id="EW_597" type="car" route="r_5" depart="597" color= "1,0,0"/>
    <vehicle id="WE_601" type="car" route="r_8" depart="601" />
    <vehicle id="EW_601" type="car" route="r_4" depart="601" color= "1,0,0"/>
    <vehicle id="WE_602" type="car" route="r_6" depart="602" />
    <vehicle id="WE_604" type="car" route="r_6" depart="604" />
    <vehicle id="EW_604" type="car" route="r_5" depart="604" color= "1,0,0"/>
    <vehicle id="NS_604" type="car" route="r_11" depart="604" color="0,1,0"/>
    <vehicle id="WE_605" type="car" route="r_7" depart="605" />
    <vehicle id="EW_614" type="car" route="r_5" depart="614" color= "1,0,0"/>
    <vehicle id="NS_615" type="car" route="r_10" depart="615" color="0,1,0"/>
    <vehicle id="SN_618" type="car" route="r_0" depart="618" color="0,0,1"/>
    <vehicle id="NS_625" type="car" route="r_11" depart="625" color="0,1,0"/>
    <vehicle id="SN_627" type="car" route="r_2" depart="627" color="0,0,1"/>
    <vehicle id="EW_631" type="car" route="r_3" depart="631" color= "1,0,0"/>
    <vehicle id="WE_632" type="car" route="r_7" depart="632" />
    <vehicle id="EW_632" type="car" route="r_5" depart="632" color= "1,0,0"/>
    <vehicle id="EW_633" type="truck" route="r_4" depart="633" color= "1,0,0"/>
    <vehicle id="NS_633" type="car" route="r_10" depart="633" color="0,1,0"/>
    <vehicle id="EW_634" type="car" route="r_5" depart="634" color= "1,0,0"/>
    <vehicle id="WE_636" type="car" route="r_7" depart="636" />
    <vehicle id="NS_639" type="car" route="r_10" depart="639" color="0,1,0"/>
    <vehicle id="SN_642" type="car" route="r_0" depart="642" color="0,0,1"/>
    <vehicle id="EW_645" type="car" route="r_3" depart="645" color= "1,0,0"/>
    <vehicle id="NS_646" type="car" route="r_10" depart="646" color="0,1,0"/>
    <vehicle id="NS_650" type="car" route="r_9" depart="650" color="0,1,0"/>
    <vehicle id="EW_653" type="car" route="r_5" depart="653" color= "1,0,0"/>
    <vehicle id="WE_654" type="car" route="r_8" depart="654" />
    <vehicle id="WE_656" type="car" route="r_6" depart="656" />
    <vehicle id="NS_656" type="car" route="r_11" depart="656" color="0,1,0"/>
    <vehicle id="WE_658" type="truck" route="r_7" depart="658" />
    <vehicle id="WE_660" type="car" route="r_8" depart="660" />
    <vehicle id="WE_661" type="car" route="r_6" depart="661" />
    <vehicle id="WE_666" type="car" route="r_7" depart="666" />
    <vehicle id="EW_668" type="car" route="r_3" depart="668" color= "1,0,0"/>
    <vehicle id="SN_671" type="car" route="r_0" depart="671" color="0,0,1"/>
    <vehicle id="WE_673" type="car" route="r_7" depart="673" />
    <vehicle id="NS_675" type="truck" route="r_9" depart="675" color="0,1,0"/>
    <vehicle id="WE_677" type="car" route="r_7" depart="677" />
    <vehicle id="EW_677" type="car" route="r_5" depart="677" color= "1,0,0"/>
    <vehicle id="WE_678" type="car" route="r_7" depart="678" />
    <vehicle id="NS_679" type="car" route="r_10" depart="679" color="0,1,0"/>
    <vehicle id="WE_684" type="car" route="r_7" depart="684" />
    <vehicle id="SN_686" type="truck" route="r_2" depart="686" color="0,0,1"/>
    <vehicle id="EW_689" type="car" route="r_4" depart="689" color= "1,0,0"/>
    <vehicle id="NS_689" type="car" route="r_11" depart="689" color="0,1,0"/>
    <vehicle id="EW_691" type="car" route="r_4" depart="691" color= "1,0,0"/>
    <vehicle id="SN_693" type="car" route="r_1" depart="693" color="0,0,1"/>
    <vehicle id="EW_698" type="car" route="r_4" depart="698" color= "1,0,0"/>
    <vehicle id="NS_699" type="car" route="r_11" depart="699" color="0,1,0"/>
    <vehicle id="NS_701" type="car" route="r_10" depart="701" color="0,1,0"/>
    <vehicle id="NS_702" type="car" route="r_9" depart="702" color="0,1,0"/>
    <vehicle id="EW_703" type="car" route="r_3" depart="703" color= "1,0,0"/>
    <vehicle id="WE_706" type="car" route="r_8" depart="706" />
    <vehicle id="NS_717" type="car" route="r_11" depart="717" color="0,1,0"/>
    <vehicle id="WE_719" type="car" route="r_7" depart="719" />
    <vehicle id="EW_724" type="car" route="r_3" depart="724" color= "1,0,0"/>
    <vehicle id="EW_729" type="car" route="r_4" depart="729" color= "1,0,0"/>
    <vehicle id="NS_729" type="car" route="r_9" depart="729" color="0,1,0"/>
    <vehicle id="EW_734" type="car" route="r_4" depart="734" color= "1,0,0"/>
    <vehicle id="WE_735" type="car" route="r_6" depart="735" />
    <vehicle id="EW_737" type="car" route="r_3" depart="737" color= "1,0,0"/>
    <vehicle id="EW_738" type="car" route="r_4" depart="738" color= "1,0,0"/>
    <vehicle id="NS_739" type="car" route="r_10" depart="739" color="0,1,0"/>
    <vehicle id="WE_750" type="car" route="r_7" depart="750" />
    <vehicle id="NS_750" type="car" route="r_9" depart="750" color="0,1,0"/>
    <vehicle id="WE_751" type="car" route="r_8" depart="751" />
    <vehicle id="WE_755" type="car" route="r_6" depart="755" />
    <vehicle id="EW_759" type="car" route="r_3" depart="759" color= "1,0,0"/>
    <vehicle id="NS_759" type="car" route="r_11" depart="759" color="0,1,0"/>
    <vehicle id="EW_760" type="truck" route="r_4" depart="760" color= "1,0,0"/>
    <vehicle id="NS_761" type="car" route="r_11" depart="761" color="0,1,0"/>
    <vehicle id="NS_767" type="car" route="r_10" depart="767" color="0,1,0"/>
    <vehicle id="NS_769" type="car" route="r_10" depart="769" color="0,1,0"/>
    <vehicle id="EW_772" type="car" route="r_3" depart="772" color= "1,0,0"/>
    <vehicle id="EW_775" type="car" route="r_3" depart="775" color= "1,0,0"/>
    <vehicle id="SN_776" type="car" route="r_0" depart="776" color="0,0,1"/>
    <vehicle id="SN_778" type="car" route="r_2" depart="778" color="0,0,1"/>
    <vehicle id="WE_785" type="car" route="r_6" depart="785" />
    <vehicle id="NS_787" type="car" route="r_9" depart="787" color="0,1,0"/>
    <vehicle id="NS_788" type="car" route="r_10" depart="788" color="0,1,0"/>
    <vehicle id="SN_790" type="car" route="r_0" depart="790" color="0,0,1"/>
    <vehicle id="WE_791" type="car" route="r_7" depart="791" />
    <vehicle id="WE_792" type="car" route="r_6" depart="792" />
    <vehicle id="WE_794" type="truck" route="r_6" depart="794" />
    <vehicle id="EW_796" type="car" route="r_3" depart="796" color= "1,0,0"/>
    <vehicle id="WE_797" type="car" route="r_8" depart="797" />
    <vehicle id="SN_797" type="car" route="r_0" depart="797" color="0,0,1"/>
    <vehicle id="NS_799" type="car" route="r_11" depart="799" color="0,1,0"/>
    <vehicle id="EW_803" type="car" route="r_4" depart="803" color= "1,0,0"/>
    <vehicle id="WE_804" type="car" route="r_6" depart="804" />
    <vehicle id="EW_806" type="car" route="r_3" depart="806" color= "1,0,0"/>
    <vehicle id="WE_812" type="car" route="r_8" depart="812" />
    <vehicle id="SN_815" type="car" route="r_1" depart="815" color="0,0,1"/>
    <vehicle id="EW_818" type="car" route="r_3" depart="818" color= "1,0,0"/>
    <vehicle id="EW_819" type="truck" route="r_5" depart="819" color= "1,0,0"/>
    <vehicle id="SN_820" type="car" route="r_2" depart="820" color="0,0,1"/>
    <vehicle id="WE_821" type="car" route="r_6" depart="821" />
    <vehicle id="WE_824" type="car" route="r_6" depart="824" />
    <vehicle id="SN_829" type="car" route="r_0" depart="829" color="0,0,1"/>
    <vehicle id="NS_830" type="car" route="r_10" depart="830" color="0,1,0"/>
    <vehicle id="WE_831" type="car" route="r_7" depart="831" />
    <vehicle id="NS_833" type="car" route="r_9" depart="833" color="0,1,0"/>
    <vehicle id="NS_838" type="car" route="r_10" depart="838" color="0,1,0"/>
    <vehicle id="NS_840" type="car" route="r_11" depart="840" color="0,1,0"/>
    <vehicle id="SN_840" type="car" route="r_0" depart="840" color="0,0,1"/>
    <vehicle id="EW_847" type="car" route="r_5" depart="847" color= "1,0,0"/>
    <vehicle id="WE_849" type="car" route="r_7" depart="849" />
    <vehicle id="EW_851" type="car" route="r_3" depart="851" color= "1,0,0"/>
    <vehicle id="WE_860" type="car" route="r_7" depart="860" />
    <vehicle id="NS_861" type="car" route="r_11" depart="861" color="0,1,0"/>
    <vehicle id="SN_861" type="truck" route="r_0" depart="861" color="0,0,1"/>
    <vehicle id="WE_862" type="car" route="r_6" depart="862" />
    <vehicle id="NS_868" type="car" route="r_9" depart="868" color="0,1,0"/>
    <vehicle id="SN_871" type="car" route="r_2" depart="871" color="0,0,1"/>
    <vehicle id="WE_874" type="car" route="r_8" depart="874" />
    <vehicle id="NS_874" type="car" route="r_11" depart="874" color="0,1,0"/>
    <vehicle id="SN_875" type="car" route="r_2" depart="875" color="0,0,1"/>
    <vehicle id="NS_878" type="car" route="r_11" depart="878" color="0,1,0"/>
    <vehicle id="NS_879" type="car" route="r_10" depart="879" color="0,1,0"/>
    <vehicle id="SN_882" type="car" route="r_1" depart="882" color="0,0,1"/>
    <vehicle id="SN_886" type="car" route="r_2" depart="886" color="0,0,1"/>
    <vehicle id="SN_891" type="car" route="r_1" depart="891" color="0,0,1"/>
    <vehicle id="NS_892" type="truck" route="r_9" depart="892" color="0,1,0"/>
    <vehicle id="EW_893" type="truck" route="r_4" depart="893" color= "1,0,0"/>
    <vehicle id="WE_906" type="car" route="r_7" depart="906" />
    <vehicle id="NS_906" type="car" route="r_10" depart="906" color="0,1,0"/>
    <vehicle id="NS_907" type="car" route="r_11" depart="907" color="0,1,0"/>
    <vehicle id="WE_911" type="truck" route="r_7" depart="911" />
    <vehicle id="EW_924" type="car" route="r_4" depart="924" color= "1,0,0"/>
    <vehicle id="SN_930" type="car" route="r_1" depart="930" color="0,0,1"/>
    <vehicle id="SN_938" type="car" route="r_0" depart="938" color="0,0,1"/>
    <vehicle id="WE_941" type="car" route="r_6" depart="941" />
    <vehicle id="NS_941" type="car" route="r_10" depart="941" color="0,1,0"/>
    <vehicle id="EW_951" type="car" route="r_5" depart="951" color= "1,0,0"/>
    <vehicle id="SN_962" type="car" route="r_2" depart="962" color="0,0,1"/>
    <vehicle id="NS_966" type="car" route="r_9" depart="966" color="0,1,0"/>
    <vehicle id="SN_967" type="car" route="r_2" depart="967" color="0,0,1"/>
    <vehicle id="NS_968" type="car" route="r_10" depart="968" color="0,1,0"/>
    <vehicle id="SN_968" type="car" route="r_2" depart="968" color="0,0,1"/>
    <vehicle id="SN_969" type="car" route="r_1" depart="969" color="0,0,1"/>
    <vehicle id="WE_971" type="car" route="r_6" depart="971" />
    <vehicle id="EW_973" type="car" route="r_3" depart="973" color= "1,0,0"/>
    <vehicle id="NS_973" type="car" route="r_10" depart="973" color="0,1,0"/>
    <vehicle id="WE_979" type="car" route="r_7" depart="979" />
    <vehicle id="NS_983" type="car" route="r_10" depart="983" color="0,1,0"/>
    <vehicle id="SN_985" type="truck" route="r_2" depart="985" color="0,0,1"/>
    <vehicle id="NS_988" type="truck" route="r_10" depart="988" color="0,1,0"/>
    <vehicle id="NS_997" type="car" route="r_9" depart="997" color="0,1,0"/>
    <vehicle id="NS_1003" type="car" route="r_9" depart="1003" color="0,1,0"/>
    <vehicle id="SN_1005" type="car" route="r_0" depart="1005" color="0,0,1"/>
    <vehicle id="WE_1014" type="car" route="r_7" depart="1014" />
    <vehicle id="SN_1014" type="car" route="r_1" depart="1014" color="0,0,1"/>
    <vehicle id="WE_1018" type="car" route="r_6" depart="1018" />
    <vehicle id="EW_1018" type="car" route="r_5" depart="1018" color= "1,0,0"/>
    <vehicle id="WE_1019" type="truck" route="r_7" depart="1019" />