<routes>
        <vType id="car" vClass="passenger" length="4" maxSpeed="25.0" accel="2.6" decel="4.5"/>
        <vType id="truck" vClass="truck" length="10" maxSpeed="20.0" accel="1.2" decel="2.5"/>

        <route id="r_0" edges="3i 1o"/>
        <route id="r_1" edges="3i 4o"/>
        <route id="r_10" edges="2i 3o"/>
        <route id="r_11" edges="2i 4o"/>
        <route id="r_2" edges="3i 2o"/>
        <route id="r_3" edges="4i 3o"/>
        <route id="r_4" edges="4i 2o"/>
        <route id="r_5" edges="4i 1o"/>
        <route id="r_6" edges="1i 2o"/>
        <route id="r_7" edges="1i 4o"/>
        <route id="r_8" edges="1i 3o"/>
        <route id="r_9" edges="2i 1o"/>
    <vehicle id="NS_0" type="car" route="r_11" depart="0" color="0,1,0"/>
    <vehicle id="NS_4" type="car" route="r_10" depart="4" color="0,1,0"/>
    <vehicle id="EW_6" type="car" route="r_3" depart="6" color= "1,0,0"/>
    <vehicle id="SN_18" type="car" route="r_2" depart="18" color="0,0,1"/>
    <vehicle id="SN_19" type="car" route="r_0" depart="19" color="0,0,1"/>
    <vehicle id="NS_22" type="car" route="r_9" depart="22" color="0,1,0"/>
    <vehicle id="WE_23" type="truck" route="r_6" depart="23" />
    <vehicle id="NS_23" type="car" route="r_11" depart="23" color="0,1,0"/>
    <vehicle id="SN_24" type="truck" route="r_0" depart="24" color="0,0,1"/>
    <vehicle id="WE_25" type="car" route="r_7" depart="25" />
    <vehicle id="WE_26" type="car" route="r_8" depart="26" />
    <vehicle id="NS_31" type="car" route="r_9" depart="31" color="0,1,0"/>
    <vehicle id="SN_31" type="car" route="r_0" depart="31" color="0,0,1"/>
    <vehicle id="WE_32" type="car" route="r_7" depart="32" />
    <vehicle id="NS_35" type="car" route="r_10" depart="35" color="0,1,0"/>
    <vehicle id="NS_36" type="car" route="r_9" depart="36" color="0,1,0"/>
    <vehicle id="SN_39" type="car" route="r_1" depart="39" color="0,0,1"/>
    <vehicle id="NS_42" type="car" route="r_9" depart="42" color="0,1,0"/>
    <vehicle id="NS_43" type="car" route="r_10" depart="43" color="0,1,0"/>
    <vehicle id="NS_44" type="car" route="r_10" depart="44" color="0,1,0"/>
    <vehicle id="WE_45" type="car" route="r_6" depart="45" />
    <vehicle id="WE_47" type="car" route="r_7" depart="47" />
    <vehicle id="SN_47" type="car" route="r_2" depart="47" color="0,0,1"/>
    <vehicle id="NS_54" type="car" route="r_11" depart="54" color="0,1,0"/>
    <vehicle id="WE_58" type="car" route="r_8" depart="58" />
    <vehicle id="SN_60" type="car" route="r_2" depart="60" color="0,0,1"/>
    <vehicle id="WE_66" type="car" route="r_8" depart="66" />
    <vehicle id="WE_67" type="truck" route="r_8" depart="67" />
    <vehicle id="WE_72" type="car" route="r_7" depart="72" />
    <vehicle id="EW_74" type="car" route="r_5" depart="74" color= "1,0,0"/>
    <vehicle id="NS_77" type="car" route="r_11" depart="77" color="0,1,0"/>
    <vehicle id="EW_80" type="car" route="r_3" depart="80" color= "1,0,0"/>
    <vehicle id="EW_86" type="car" route="r_3" depart="86" color= "1,0,0"/>
    <vehicle id="NS_88" type="car" route="r_9" depart="88" color="0,1,0"/>
    <vehicle id="EW_97" type="car" route="r_4" depart="97" color= "1,0,0"/>
    <vehicle id="WE_104" type="car" route="r_8" depart="104" />
    <vehicle id="EW_110" type="car" route="r_5" depart="110" color= "1,0,0"/>
    <vehicle id="NS_111" type="car" route="r_11" depart="111" color="0,1,0"/>
    <vehicle id="SN_111" type="car" route="r_1" depart="111" color="0,0,1"/>
    <vehicle id="NS_113" type="car" route="r_9" depart="113" color="0,1,0"/>
    <vehicle id="SN_114" type="car" route="r_2" depart="114" color="0,0,1"/>
    <vehicle id="NS_117" type="car" route="r_10" depart="117" color="0,1,0"/>
    <vehicle id="NS_124" type="car" route="r_9" depart="124" color="0,1,0"/>
    <vehicle id="NS_126" type="car" route="r_11" depart="126" color="0,1,0"/>
    <vehicle id="EW_127" type="car" route="r_3" depart="127" color= "1,0,0"/>
    <vehicle id="NS_141" type="car" route="r_9" depart="141" color="0,1,0"/>
    <vehicle id="SN_143" type="car" route="r_0" depart="143" color="0,0,1"/>
    <vehicle id="SN_144" type="car" route="r_2" depart="144" color="0,0,1"/>
    <vehicle id="WE_149" type="car" route="r_6" depart="149" />
    <vehicle id="WE_152" type="truck" route="r_8" depart="152" />
    <vehicle id="EW_152" type="car" route="r_4" depart="152" color= "1,0,0"/>
    <vehicle id="SN_154" type="car" route="r_0" depart="154" color="0,0,1"/>
    <vehicle id="WE_157" type="car" route="r_7" depart="157" />
    <vehicle id="SN_161" type="car" route="r_2" depart="161" color="0,0,1"/>
    <vehicle id="WE_162" type="car" route="r_8" depart="162" />
    <vehicle id="SN_162" type="car" route="r_1" depart="162" color="0,0,1"/>
    <vehicle id="WE_164" type="car" route="r_8" depart="164" />
    <vehicle id="EW_165" type="car" route="r_5" depart="165" color= "1,0,0"/>
    <vehicle id="SN_166" type="car" route="r_0" depart="166" color="0,0,1"/>
    <vehicle id="WE_167" type="car" route="r_7" depart="167" />
    <vehicle id="SN_167" type="car" route="r_1" depart="167" color="0,0,1"/>
    <vehicle id="NS_172" type="car" route="r_11" depart="172" color="0,1,0"/>
    <vehicle id="SN_175" type="car" route="r_2" depart="175" color="0,0,1"/>
    <vehicle id="SN_188" type="car" route="r_0" depart="188" color="0,0,1"/>
    <vehicle id="SN_190" type="car" route="r_1" depart="190" color="0,0,1"/>
    <vehicle id="NS_191" type="car" route="r_9" depart="191" color="0,1,0"/>
    <vehicle id="EW_192" type="car" route="r_4" depart="192" color= "1,0,0"/>
    <vehicle id="EW_203" type="car" route="r_5" depart="203" color= "1,0,0"/>
    <vehicle id="NS_204" type="car" route="r_9" depart="204" color="0,1,0"/>
    <vehicle id="WE_207" type="car" route="r_7" depart="207" />
    <vehicle id="EW_207" type="car" route="r_4" depart="207" color= "1,0,0"/>
    <vehicle id="WE_208" type="car" route="r_6" depart="208" />
    <vehicle id="NS_209" type="car" route="r_11" depart="209" color="0,1,0"/>
    <vehicle id="WE_212" type="car" route="r_6" depart="212" />
    <vehicle id="WE_215" type="car" route="r_7" depart="215" />
    <vehicle id="NS_217" type="car" route="r_11" depart="217" color="0,1,0"/>
    <vehicle id="EW_220" type="truck" route="r_4" depart="220" color= "1,0,0"/>
    <vehicle id="EW_221" type="car" route="r_4" depart="221" color= "1,0,0"/>
    <vehicle id="WE_224" type="car" route="r_7" depart="224" />
    <vehicle id="SN_225" type="car" route="r_2" depart="225" color="0,0,1"/>
    <vehicle id="EW_233" type="car" route="r_5" depart="233" color= "1,0,0"/>
    <vehicle id="WE_234" type="car" route="r_7" depart="234" />
    <vehicle id="NS_239" type="car" route="r_11" depart="239" color="0,1,0"/>
    <vehicle id="EW_240" type="car" route="r_4" depart="240" color= "1,0,0"/>
    <vehicle id="SN_243" type="car" route="r_0" depart="243" color="0,0,1"/>
    <vehicle id="EW_245" type="car" route="r_5" depart="245" color= "1,0,0"/>
    <vehicle id="SN_248" type="car" route="r_1" depart="248" color="0,0,1"/>
    <vehicle id="EW_249" type="car" route="r_3" depart="249" color= "1,0,0"/>
    <vehicle id="WE_251" type="car" route="r_8" depart="251" />
    <vehicle id="WE_252" type="car" route="r_7" depart="252" />
    <vehicle id="NS_255" type="car" route="r_11" depart="255" color="0,1,0"/>
    <vehicle id="SN_257" type="car" route="r_2" depart="257" color="0,0,1"/>
    <vehicle id="SN_258" type="car" route="r_0" depart="258" color="0,0,1"/>
    <vehicle id="WE_259" type="car" route="r_8" depart="259" />
    <vehicle id="WE_262" type="car" route="r_6" depart="262" />
    <vehicle id="SN_263" type="truck" route="r_1" depart="263" color="0,0,1"/>
    <vehicle id="EW_267" type="car" route="r_4" depart="267" color= "1,0,0"/>
    <vehicle id="SN_268" type="car" route="r_0" depart="268" color="0,0,1"/>
    <vehicle id="NS_276" type="truck" route="r_9" depart="276" color="0,1,0"/>
    <vehicle id="NS_278" type="car" route="r_9" depart="278" color="0,1,0"/>
    <vehicle id="EW_281" type="car" route="r_4" depart="281" color= "1,0,0"/>
    <vehicle id="EW_283" type="car" route="r_3" depart="283" color= "1,0,0"/>
    <vehicle id="NS_283" type="car" route="r_10" depart="283" color="0,1,0"/>
    <vehicle id="SN_285" type="car" route="r_0" depart="285" color="0,0,1"/>
    <vehicle id="NS_293" type="car" route="r_10" depart="293" color="0,1,0"/>
    <vehicle id="WE_299" type="car" route="r_8" depart="299" />
    <vehicle id="SN_300" type="car" route="r_1" depart="300" color="0,0,1"/>
    <vehicle id="SN_301" type="car" route="r_0" depart="301" color="0,0,1"/>
    <vehicle id="WE_304" type="car" route="r_7" depart="304" />
    <vehicle id="WE_305" type="car" route="r_8" depart="305" />
    <vehicle id="EW_309" type="car" route="r_4" depart="309" color= "1,0,0"/>
    <vehicle id="WE_310" type="car" route="r_6" depart="310" />
    <vehicle id="SN_310" type="car" route="r_1" depart="310" color="0,0,1"/>
    <vehicle id="SN_314" type="car" route="r_2" depart="314" color="0,0,1"/>
    <vehicle id="NS_317" type="car" route="r_10" depart="317" color="0,1,0"/>
    <vehicle id="EW_325" type="car" route="r_4" depart="325" color= "1,0,0"/>
    <vehicle id="NS_326" type="car" route="r_10" depart="326" color="0,1,0"/>
    <vehicle id="SN_327" type="car" route="r_0" depart="327" color="0,0,1"/>
    <vehicle id="WE_328" type="car" route="r_8" depart="328" />
    <vehicle id="WE_331" type="car" route="r_6" depart="331" />
    <vehicle id="SN_332" type="car" route="r_1" depart="332" color="0,0,1"/>
    <vehicle id="WE_335" type="car" route="r_6" depart="335" />
    <vehicle id="NS_340" type="car" route="r_9" depart="340" color="0,1,0"/>
    <vehicle id="EW_342" type="car" route="r_4" depart="342" color= "1,0,0"/>
    <vehicle id="NS_345" type="car" route="r_10" depart="345" color="0,1,0"/>
    <vehicle id="EW_348" type="car" route="r_5" depart="348" color= "1,0,0"/>
    <vehicle id="WE_352" type="car" route="r_8" depart="352" />
    <vehicle id="EW_353" type="car" route="r_4" depart="353" color= "1,0,0"/>
    <vehicle id="EW_356" type="car" route="r_3" depart="356" color= "1,0,0"/>
    <vehicle id="NS_357" type="car" route="r_9" depart="357" color="0,1,0"/>
    <vehicle id="EW_363" type="car" route="r_3" depart="363" color= "1,0,0"/>
    <vehicle id="EW_365" type="car" route="r_4" depart="365" color= "1,0,0"/>
    <vehicle id="SN_367" type="car" route="r_1" depart="367" color="0,0,1"/>
    <vehicle id="SN_368" type="car" route="r_2" depart="368" color="0,0,1"/>
    <vehicle id="EW_374" type="car" route="r_4" depart="374" color= "1,0,0"/>
    <vehicle id="NS_375" type="car" route="r_9" depart="375" color="0,1,0"/>
    <vehicle id="NS_377" type="car" route="r_9" depart="377" color="0,1,0"/>
    <vehicle id="SN_378" type="car" route="r_0" depart="378" color="0,0,1"/>
    <vehicle id="EW_381" type="car" route="r_3" depart="381" color= "1,0,0"/>
    <vehicle id="SN_387" type="car" route="r_2" depart="387" color="0,0,1"/>
    <vehicle id="NS_388" type="car" route="r_9" depart="388" color="0,1,0"/>
    <vehicle id="SN_390" type="car" route="r_2" depart="390" color="0,0,1"/>
    <vehicle id="WE_391" type="car" route="r_6" depart="391" />
    <vehicle id="NS_391" type="car" route="r_9" depart="391" color="0,1,0"/>
    <vehicle id="WE_395" type="truck" route="r_6" depart="395" />
    <vehicle id="SN_395" type="car" route="r_1" depart="395" color="0,0,1"/>
    <vehicle id="EW_399" type="car" route="r_4" depart="399" color= "1,0,0"/>
    <vehicle id="WE_402" type="car" route="r_7" depart="402" />
    <vehicle id="EW_405" type="car" route="r_3" depart="405" color= "1,0,0"/>
    <vehicle id="WE_406" type="car" route="r_7" depart="406" />
    <vehicle id="SN_410" type="car" route="r_1" depart="410" color="0,0,1"/>
    <vehicle id="SN_413" type="car" route="r_1" depart="413" color="0,0,1"/>
    <vehicle id="NS_421" type="car" route="r_11" depart="421" color="0,1,0"/>
    <vehicle id="WE_429" type="car" route="r_7" depart="429" />
    <vehicle id="EW_434" type="car" route="r_4" depart="434" color= "1,0,0"/>
    <vehicle id="WE_435" type="car" route="r_6" depart="435" />
    <vehicle id="SN_439" type="car" route="r_2" depart="439" color="0,0,1"/>
    <vehicle id="EW_445" type="car" route="r_5" depart="445" color= "1,0,0"/>
    <vehicle id="WE_446" type="car" route="r_7" depart="446" />
    <vehicle id="EW_457" type="car" route="r_4" depart="457" color= "1,0,0"/>
    <vehicle id="EW_462" type="car" route="r_3" depart="462" color= "1,0,0"/>
    <vehicle id="NS_462" type="car" route="r_11" depart="462" color="0,1,0"/>
    <vehicle id="WE_463" type="car" route="r_8" depart="463" />
    <vehicle id="NS_463" type="car" route="r_9" depart="463" color="0,1,0"/>
    <vehicle id="NS_465" type="car" route="r_9" depart="465" color="0,1,0"/>
    <vehicle id="SN_469" type="truck" route="r_1" depart="469" color="0,0,1"/>
    <vehicle id="SN_470" type="car" route="r_0" depart="470" color="0,0,1"/>
    <vehicle id="EW_472" type="car" route="r_4" depart="472" color= "1,0,0"/>
    <vehicle id="SN_473" type="car" route="r_2" depart="473" color="0,0,1"/>
    <vehicle id="WE_474" type="truck" route="r_8" depart="474" />
    <vehicle id="WE_481" type="car" route="r_7" depart="481" />
    <vehicle id="NS_481" type="car" route="r_11" depart="481" color="0,1,0"/>
    <vehicle id="SN_494" type="car" route="r_2" depart="494" color="0,0,1"/>
    <vehicle id="WE_495" type="car" route="r_6" depart="495" />
    <vehicle id="NS_495" type="car" route="r_10" depart="495" color="0,1,0"/>
    <vehicle id="NS_499" type="car" route="r_10" depart="499" color="0,1,0"/>
    <vehicle id="NS_508" type="car" route="r_9" depart="508" color="0,1,0"/>
    <vehicle id="SN_509" type="car" route="r_0" depart="509" color="0,0,1"/>
    <vehicle id="EW_512" type="car" route="r_3" depart="512" color= "1,0,0"/>
    <vehicle id="EW_514" type="car" route="r_5" depart="514" color= "1,0,0"/>
    <vehicle id="NS_519" type="car" route="r_11" depart="519" color="0,1,0"/>
    <vehicle id="NS_520" type="car" route="r_11" depart="520" color="0,1,0"/>
    <vehicle id="SN_520" type="car" route="r_0" depart="520" color="0,0,1"/>
    <vehicle id="NS_525" type="car" route="r_9" depart="525" color="0,1,0"/>
    <vehicle id="SN_541" type="car" route="r_1" depart="541" color="0,0,1"/>
    <vehicle id="SN_542" type="car" route="r_0" depart="542" color="0,0,1"/>
    <vehicle id="NS_545" type="car" route="r_9" depart="545" color="0,1,0"/>
    <vehicle id="NS_547" type="car" route="r_10" depart="547" color="0,1,0"/>
    <vehicle id="EW_548" type="car" route="r_4" depart="548" color= "1,0,0"/>
    <vehicle id="WE_550" type="car" route="r_8" depart="550" />
    <vehicle id="WE_553" type="car" route="r_7" depart="553" />
    <vehicle id="NS_556" type="car" route="r_11" depart="556" color="0,1,0"/>
    <vehicle id="EW_557" type="car" route="r_3" depart="557" color= "1,0,0"/>
    <vehicle id="SN_563" type="car" route="r_2" depart="563" color="0,0,1"/>
    <vehicle id="WE_565" type="car" route="r_6" depart="565" />
    <vehicle id="WE_566" type="car" route="r_7" depart="566" />
    <vehicle id="SN_568" type="car" route="r_1" depart="568" color="0,0,1"/>
    <vehicle id="WE_571" type="car" route="r_6" depart="571" />
    <vehicle id="NS_573" type="car" route="r_9" depart="573" color="0,1,0"/>
    <vehicle id="NS_574" type="car" route="r_10" depart="574" color="0,1,0"/>
    <vehicle id="NS_580" type="car" route="r_9" depart="580" color="0,1,0"/>
    <vehicle id="NS_584" type="truck" route="r_10" depart="584" color="0,1,0"/>
    <vehicle id="WE_586" type="car" route="r_6" depart="586" />
    <vehicle id="NS_586" type="car" route="r_11" depart="586" color="0,1,0"/>
    <vehicle id="EW_591" type="car" route="r_4" depart="591" color= "1,0,0"/>
    <vehicle id="NS_591" type="car" route="r_9" depart="591" color="0,1,0"/>
    <vehicle id="EW_592" type="car" route="r_4" depart="592" color= "1,0,0"/>
    <vehicle id="EW_596" type="car" route="r_3" depart="596" color= "1,0,0"/>
    <vehicle id="WE_597" type="car" route="r_7" depart="597" />
    <vehicle id="WE_598" type="car" route="r_6" depart="598" />
    <vehicle id="NS_598" type="car" route="r_11" depart="598" color="0,1,0"/>
    <vehicle id="WE_600" type="car" route="r_6" depart="600" />
    <vehicle id="NS_602" type="car" route="r_11" depart="602" color="0,1,0"/>
    <vehicle id="SN_603" type="car" route="r_1" depart="603" color="0,0,1"/>
    <vehicle id="WE_605" type="car" route="r_8" depart="605" />
    <vehicle id="SN_610" type="car" route="r_2" depart="610" color="0,0,1"/>
    <vehicle id="WE_613" type="car" route="r_8" depart="613" />
    <vehicle id="SN_614" type="car" route="r_2" depart="614" color="0,0,1"/>
    <vehicle id="EW_616" type="car" route="r_4" depart="616" color= "1,0,0"/>
    <vehicle id="SN_616" type="car" route="r_2" depart="616" color="0,0,1"/>
    <vehicle id="SN_617" type="car" route="r_1" depart="617" color="0,0,1"/>
    <vehicle id="NS_622" type="car" route="r_11" depart="622" color="0,1,0"/>
    <vehicle id="WE_624" type="car" route="r_6" depart="624" />
    <vehicle id="NS_629" type="car" route="r_10" depart="629" color="0,1,0"/>
    <vehicle id="EW_630" type="car" route="r_3" depart="630" color= "1,0,0"/>
    <vehicle id="WE_631" type="car" route="r_7" depart="631" />
    <vehicle id="WE_632" type="truck" route="r_8" depart="632" />
    <vehicle id="WE_635" type="car" route="r_7" depart="635" />
    <vehicle id="NS_639" type="car" route="r_9" depart="639" color="0,1,0"/>
    <vehicle id="SN_639" type="car" route="r_1" depart="639" color="0,0,1"/>
    <vehicle id="SN_644" type="car" route="r_2" depart="644" color="0,0,1"/>
    <vehicle id="SN_646" type="car" route="r_2" depart="646" color="0,0,1"/>
    <vehicle id="WE_651" type="car" route="r_7" depart="651" />
    <vehicle id="WE_657" type="truck" route="r_8" depart="657" />
    <vehicle id="SN_657" type="car" route="r_1" depart="657" color="0,0,1"/>
    <vehicle id="NS_660" type="car" route="r_11" depart="660" color="0,1,0"/>
    <vehicle id="NS_663" type="car" route="r_10" depart="663" color="0,1,0"/>
    <vehicle id="SN_667" type="car" route="r_2" depart="667" color="0,0,1"/>
    <vehicle id="EW_668" type="car" route="r_5" depart="668" color= "1,0,0"/>
    <vehicle id="WE_670" type="car" route="r_7" depart="670" />
    <vehicle id="EW_675" type="car" route="r_4" depart="675" color= "1,0,0"/>
    <vehicle id="WE_676" type="car" route="r_7" depart="676" />
    <vehicle id="SN_676" type="car" route="r_2" depart="676" color="0,0,1"/>
    <vehicle id="NS_678" type="car" route="r_9" depart="678" color="0,1,0"/>
    <vehicle id="WE_679" type="car" route="r_8" depart="679" />
    <vehicle id="WE_680" type="car" route="r_6" depart="680" />
    <vehicle id="NS_683" type="car" route="r_11" depart="683" color="0,1,0"/>
    <vehicle id="SN_685" type="car" route="r_2" depart="685" color="0,0,1"/>
    <vehicle id="WE_686" type="car" route="r_7" depart="686" />
    <vehicle id="SN_687" type="car" route="r_0" depart="687" color="0,0,1"/>
    <vehicle id="WE_689" type="car" route="r_7" depart="689" />
    <vehicle id="SN_690" type="car" route="r_2" depart="690" color="0,0,1"/>
    <vehicle id="SN_693" type="car" route="r_2" depart="693" color="0,0,1"/>
    <vehicle id="NS_695" type="car" route="r_9" depart="695" color="0,1,0"/>
    <vehicle id="SN_700" type="car" route="r_2" depart="700" color="0,0,1"/>
    <vehicle id="SN_702" type="car" route="r_0" depart="702" color="0,0,1"/>
    <vehicle id="WE_703" type="car" route="r_6" depart="703" />
    <vehicle id="NS_703" type="car" route="r_10" depart="703" color="0,1,0"/>
    <vehicle id="NS_704" type="truck" route="r_9" depart="704" color="0,1,0"/>
    <vehicle id="NS_705" type="car" route="r_9" depart="705" color="0,1,0"/>
    <vehicle id="EW_707" type="car" route="r_4" depart="707" color= "1,0,0"/>
    <vehicle id="WE_708" type="truck" route="r_8" depart="708" />
    <vehicle id="NS_709" type="car" route="r_11" depart="709" color="0,1,0"/>
    <vehicle id="SN_711" type="car" route="r_2" depart="711" color="0,0,1"/>
    <vehicle id="NS_716" type="car" route="r_9" depart="716" color="0,1,0"/>
    <vehicle id="SN_717" type="car" route="r_0" depart="717" color="0,0,1"/>
    <vehicle id="NS_719" type="car" route="r_11" depart="719" color="0,1,0"/>
    <vehicle id="EW_721" type="car" route="r_4" depart="721" color= "1,0,0"/>
    <vehicle id="NS_721" type="car" route="r_11" depart="721" color="0,1,0"/>
    <vehicle id="EW_724" type="car" route="r_5" depart="724" color= "1,0,0"/>
    <vehicle id="SN_726" type="car" route="r_2" depart="726" color="0,0,1"/>
    <vehicle id="WE_727" type="truck" route="r_8" depart="727" />
    <vehicle id="SN_727" type="car" route="r_2" depart="727" color="0,0,1"/>
    <vehicle id="EW_728" type="car" route="r_5" depart="728" color= "1,0,0"/>
    <vehicle id="EW_732" type="car" route="r_3" depart="732" color= "1,0,0"/>
    <vehicle id="NS_734" type="car" route="r_10" depart="734" color="0,1,0"/>
    <vehicle id="SN_734" type="car" route="r_2" depart="734" color="0,0,1"/>
    <vehicle id="WE_737" type="car" route="r_7" depart="737" />
    <vehicle id="EW_740" type="car" route="r_5" depart="740" color= "1,0,0"/>
    <vehicle id="SN_741" type="car" route="r_1" depart="741" color="0,0,1"/>
    <vehicle id="WE_746" type="car" route="r_7" depart="746" />
    <vehicle id="NS_747" type="car" route="r_10" depart="747" color="0,1,0"/>
    <vehicle id="EW_748" type="car" route="r_5" depart="748" color= "1,0,0"/>
    <vehicle id="SN_748" type="car" route="r_0" depart="748" color="0,0,1"/>
    <vehicle id="SN_761" type="car" route="r_0" depart="761" color="0,0,1"/>
    <vehicle id="EW_762" type="car" route="r_3" depart="762" color= "1,0,0"/>
    <vehicle id="SN_765" type="car" route="r_2" depart="765" color="0,0,1"/>
    <vehicle id="EW_766" type="car" route="r_3" depart="766" color= "1,0,0"/>
    <vehicle id="SN_766" type="car" route="r_1" depart="766" color="0,0,1"/>
    <vehicle id="SN_771" type="car" route="r_2" depart="771" color="0,0,1"/>
    <vehicle id="WE_775" type="car" route="r_7" depart="775" />
    <vehicle id="SN_775" type="car" route="r_0" depart="775" color="0,0,1"/>
    <vehicle id="SN_779" type="car" route="r_1" depart="779" color="0,0,1"/>
    <vehicle id="WE_782" type="car" route="r_6" depart="782" />
    <vehicle id="SN_785" type="car" route="r_2" depart="785" color="0,0,1"/>
    <vehicle id="WE_787" type="car" route="r_8" depart="787" />
    <vehicle id="WE_788" type="car" route="r_6" depart="788" />
    <vehicle id="EW_789" type="car" route="r_3" depart="789" color= "1,0,0"/>
    <vehicle id="WE_790" type="truck" route="r_7" depart="790" />
    <vehicle id="NS_798" type="car" route="r_9" depart="798" color="0,1,0"/>
    <vehicle id="SN_798" type="car" route="r_1" depart="798" color="0,0,1"/>
    <vehicle id="NS_801" type="car" route="r_9" depart="801" color="0,1,0"/>
    <vehicle id="SN_803" type="car" route="r_1" depart="803" color="0,0,1"/>
    <vehicle id="SN_805" type="truck" route="r_1" depart="805" color="0,0,1"/>
    <vehicle id="WE_807" type="car" route="r_7" depart="807" />
    <vehicle id="WE_815" type="car" route="r_7" depart="815" />
    <vehicle id="WE_822" type="truck" route="r_7" depart="822" />
    <vehicle id="WE_825" type="truck" route="r_8" depart="825" />
    <vehicle id="NS_825" type="car" route="r_9" depart="825" color="0,1,0"/>
    <vehicle id="EW_826" type="car" route="r_4" depart="826" color= "1,0,0"/>
    <vehicle id="SN_832" type="car" route="r_0" depart="832" color="0,0,1"/>
    <vehicle id="WE_836" type="car" route="r_7" depart="836" />
    <vehicle id="WE_838" type="car" route="r_7" depart="838" />
    <vehicle id="SN_838" type="car" route="r_0" depart="838" color="0,0,1"/>
    <vehicle id="SN_841" type="car" route="r_0" depart="841" color="0,0,1"/>
    <vehicle id="WE_843" type="car" route="r_8" depart="843" />
    <vehicle id="EW_845" type="car" route="r_5" depart="845" color= "1,0,0"/>
    <vehicle id="SN_845" type="car" route="r_2" depart="845" color="0,0,1"/>
    <vehicle id="EW_846" type="car" route="r_5" depart="846" color= "1,0,0"/>
    <vehicle id="SN_846" type="car" route="r_0" depart="846" color="0,0,1"/>
    <vehicle id="SN_848" type="car" route="r_0" depart="848" color="0,0,1"/>
    <vehicle id="EW_850" type="car" route="r_3" depart="850" color= "1,0,0"/>
    <vehicle id="SN_853" type="car" route="r_1" depart="853" color="0,0,1"/>
    <vehicle id="NS_854" type="car" route="r_9" depart="854" color="0,1,0"/>
    <vehicle id="NS_856" type="car" route="r_9" depart="856" color="0,1,0"/>
    <vehicle id="EW_859" type="car" route="r_3" depart="859" color= "1,0,0"/>
    <vehicle id="SN_866" type="truck" route="r_0" depart="866" color="0,0,1"/>
    <vehicle id="NS_867" type="car" route="r_10" depart="867" color="0,1,0"/>
    <vehicle id="SN_867" type="car" route="r_2" depart="867" color="0,0,1"/>
    <vehicle id="EW_871" type="car" route="r_3" depart="871" color= "1,0,0"/>
    <vehicle id="SN_872" type="car" route="r_0" depart="872" color="0,0,1"/>
    <vehicle id="WE_874" type="car" route="r_8" depart="874" />
    <vehicle id="SN_874" type="truck" route="r_1" depart="874" color="0,0,1"/>
    <vehicle id="SN_885" type="car" route="r_1" depart="885" color="0,0,1"/>
    <vehicle id="SN_888" type="truck" route="r_2" depart="888" color="0,0,1"/>
    <vehicle id="SN_889" type="car" route="r_0" depart="889" color="0,0,1"/>
    <vehicle id="NS_891" type="car" route="r_10" depart="891" color="0,1,0"/>
    <vehicle id="SN_893" type="car" route="r_1" depart="893" color="0,0,1"/>
    <vehicle id="EW_900" type="car" route="r_4" depart="900" color= "1,0,0"/>
    <vehicle id="EW_907" type="car" route="r_3" depart="907" color= "1,0,0"/>
    <vehicle id="NS_907" type="car" route="r_11" depart="907" color="0,1,0"/>
    <vehicle id="SN_907" type="truck" route="r_0" depart="907" color="0,0,1"/>
    <vehicle id="NS_911" type="car" route="r_10" depart="911" color="0,1,0"/>
    <vehicle id="NS_913" type="truck" route="r_10" depart="913" color="0,1,0"/>
    <vehicle id="WE_916" type="car" route="r_8" depart="916" />
    <vehicle id="NS_916" type="car" route="r_9" depart="916" color="0,1,0"/>
    <vehicle id="NS_919" type="car" route="r_9" depart="919" color="0,1,0"/>
    <vehicle id="WE_927" type="car" route="r_7" depart="927" />
    <vehicle id="EW_928" type="car" route="r_3" depart="928" color= "1,0,0"/>
    <vehicle id="WE_929" type="car" route="r_7" depart="929" />
    <vehicle id="SN_929" type="car" route="r_2" depart="929" color="0,0,1"/>
    <vehicle id="WE_933" type="car" route="r_6" depart="933" />
    <vehicle id="NS_934" type="car" route="r_9" depart="934" color="0,1,0"/>
    <vehicle id="NS_937" type="car" route="r_9" depart="937" color="0,1,0"/>
    <vehicle id="EW_939" type="car" route="r_4" depart="939" color= "1,0,0"/>
    <vehicle id="NS_940" type="car" route="r_9" depart="940" color="0,1,0"/>
    <vehicle id="EW_943" type="car" route="r_3" depart="943" color= "1,0,0"/>
    <vehicle id="WE_944" type="truck" route="r_7" depart="944" />
    <vehicle id="EW_944" type="car" route="r_4" depart="944" color= "1,0,0"/>
    <vehicle id="SN_946" type="truck" route="r_1" depart="946" color="0,0,1"/>
    <vehicle id="NS_950" type="car" route="r_10" depart="950" color="0,1,0"/>
    <vehicle id="NS_951" type="truck" route="r_9" depart="951" color="0,1,0"/>
    <vehicle id="WE_953" type="car" route="r_7" depart="953" />
    <vehicle id="EW_953" type="car" route="r_4" depart="953" color= "1,0,0"/>
    <vehicle id="WE_954" type="car" route="r_6" depart="954" />
    <vehicle id="SN_956" type="truck" route="r_0" depart="956" color="0,0,1"/>
    <vehicle id="NS_958" type="car" route="r_9" depart="958" color="0,1,0"/>
    <vehicle id="NS_960" type="car" route="r_9" depart="960" color="0,1,0"/>
    <vehicle id="NS_961" type="car" route="r_9" depart="961" color="0,1,0"/>
    <vehicle id="NS_962" type="car" route="r_10" depart="962" color="0,1,0"/>
    <vehicle id="SN_962" type="car" route="r_0" depart="962" color="0,0,1"/>
    <vehicle id="EW_963" type="car" route="r_3" depart="963" color= "1,0,0"/>
    <vehicle id="EW_966" type="truck" route="r_4" depart="966" color= "1,0,0"/>
    <vehicle id="SN_967" type="car" route="r_2" depart="967" color="0,0,1"/>
    <vehicle id="EW_968" type="car" route="r_4" depart="968" color= "1,0,0"/>
    <vehicle id="SN_968" type="car" route="r_1" depart="968" color="0,0,1"/>
    <vehicle id="EW_973" type="car" route="r_5" depart="973" color= "1,0,0"/>
    <vehicle id="SN_973" type="car" route="r_1" depart="973" color="0,0,1"/>
    <vehicle id="SN_977" type="car" route="r_2" depart="977" color="0,0,1"/>
    <vehicle id="WE_985" type="car" route="r_6" depart="985" />
    <vehicle id="SN_986" type="car" route="r_2" depart="986" color="0,0,1"/>
    <vehicle id="WE_1002" type="car" route="r_8" depart="1002" />
    <vehicle id="NS_1002" type="car" route="r_11" depart="1002" color="0,1,0"/>
    <vehicle id="WE_1004" type="truck" route="r_6" depart="1004" />
    <vehicle id="NS_1006" type="truck" route="r_9" depart="1006" color="0,1,0"/>
    <vehicle id="SN_1012" type="car" route="r_2" depart="1012" color="0,0,1"/>
    <vehicle id="EW_1013" type="car" route="r_4" depart="1013" color= "1,0,0"/>
    <vehicle id="SN_1013" type="truck" route="r_0" depart="1013" color="0,0,1"/>
    <vehicle id="WE_1017" type="car" route="r_7" depart="1017" />
    <vehicle id="NS_1017" type="truck" route="r_11" depart="1017" color="0,1,0"/>
    <vehicle id="NS_1018" type="car" route="r_10" depart="1018" color="0,1,0"/>
    <vehicle id="NS_1020" type="car" route="r_10" depart="1020" color="0,1,0"/>
    <vehicle id="SN_1026" type="car" route="r_1" depart="1026" color="0,0,1"/>
    <vehicle id="WE_1031" type="car" route="r_6" depart="1031" />
    <vehicle id="EW_1034" type="car" route="r_3" depart="1034" color= "1,0,0"/>