<routes>
        <vType id="car" vClass="passenger" length="4" maxSpeed="25.0" accel="2.6" decel="4.5"/>
        <vType id="truck" vClass="truck" length="10" maxSpeed="20.0" accel="1.2" decel="2.5"/>

        <route id="r_0" edges="3i 1o"/>
        <route id="r_1" edges="3i 4o"/>
        <route id="r_10" edges="2i 3o"/>
        <route id="r_11" edges="2i 4o"/>
        <route id="r_2" edges="3i 2o"/>
        <route id="r_3" edges="4i 3o"/>
        <route id="r_4" edges="4i 2o"/>
        <route id="r_5" edges="4i 1o"/>
        <route id="r_6" edges="1i 2o"/>
        <route id="r_7" edges="1i 4o"/>
        <route id="r_8" edges="1i 3o"/>
        <route id="r_9" edges="2i 1o"/>
    <vehicle id="WE_2" type="car" route="r_8" depart="2" />
    <vehicle id="SN_2" type="car" route="r_2" depart="2" color="0,0,1"/>
    <vehicle id="SN_3" type="car" route="r_1" depart="3" color="0,0,1"/>
    <vehicle id="WE_5" type="car" route="r_7" depart="5" />
    <vehicle id="SN_6" type="car" route="r_1" depart="6" color="0,0,1"/>
    <vehicle id="NS_11" type="car" route="r_11" depart="11" color="0,1,0"/>
    <vehicle id="SN_14" type="car" route="r_2" depart="14" color="0,0,1"/>
    <vehicle id="EW_19" type="car" route="r_5" depart="19" color= "1,0,0"/>
    <vehicle id="WE_21" type="car" route="r_7" depart="21" />
    <vehicle id="NS_23" type="car" route="r_9" depart="23" color="0,1,0"/>
    <vehicle id="SN_25" type="car" route="r_0" depart="25" color="0,0,1"/>
    <vehicle id="EW_27" type="car" route="r_4" depart="27" color= "1,0,0"/>
    <vehicle id="WE_29" type="car" route="r_7" depart="29" />
    <vehicle id="WE_31" type="car" route="r_6" depart="31" />
    <vehicle id="WE_35" type="car" route="r_8" depart="35" />
    <vehicle id="EW_37" type="car" route="r_3" depart="37" color= "1,0,0"/>
    <vehicle id="SN_42" type="car" route="r_0" depart="42" color="0,0,1"/>
    <vehicle id="NS_46" type="car" route="r_11" depart="46" color="0,1,0"/>
    <vehicle id="EW_50" type="car" route="r_5" depart="50" color= "1,0,0"/>
    <vehicle id="NS_52" type="car" route="r_11" depart="52" color="0,1,0"/>
    <vehicle id="EW_54" type="car" route="r_3" depart="54" color= "1,0,0"/>
    <vehicle id="WE_55" type="car" route="r_8" depart="55" />
    <vehicle id="WE_59" type="car" route="r_8" depart="59" />
    <vehicle id="EW_60" type="truck" route="r_5" depart="60" color= "1,0,0"/>
    <vehicle id="NS_63" type="car" route="r_11" depart="63" color="0,1,0"/>
    <vehicle id="SN_67" type="car" route="r_0" depart="67" color="0,0,1"/>
    <vehicle id="EW_68" type="car" route="r_4" depart="68" color= "1,0,0"/>
    <vehicle id="EW_70" type="truck" route="r_3" depart="70" color= "1,0,0"/>
    <vehicle id="EW_73" type="car" route="r_5" depart="73" color= "1,0,0"/>
    <vehicle id="EW_76" type="truck" route="r_5" depart="76" color= "1,0,0"/>
    <vehicle id="EW_78" type="car" route="r_4" depart="78" color= "1,0,0"/>
    <vehicle id="SN_78" type="car" route="r_0" depart="78" color="0,0,1"/>
    <vehicle id="SN_80" type="car" route="r_1" depart="80" color="0,0,1"/>
    <vehicle id="NS_84" type="car" route="r_10" depart="84" color="0,1,0"/>
    <vehicle id="SN_89" type="car" route="r_2" depart="89" color="0,0,1"/>
    <vehicle id="WE_91" type="truck" route="r_8" depart="91" />
    <vehicle id="WE_98" type="car" route="r_7" depart="98" />
    <vehicle id="EW_98" type="car" route="r_4" depart="98" color= "1,0,0"/>
    <vehicle id="SN_106" type="car" route="r_1" depart="106" color="0,0,1"/>
    <vehicle id="WE_109" type="car" route="r_7" depart="109" />
    <vehicle id="SN_112" type="car" route="r_1" depart="112" color="0,0,1"/>
    <vehicle id="EW_120" type="car" route="r_5" depart="120" color= "1,0,0"/>
    <vehicle id="EW_121" type="car" route="r_5" depart="121" color= "1,0,0"/>
    <vehicle id="NS_123" type="car" route="r_10" depart="123" color="0,1,0"/>
    <vehicle id="NS_128" type="car" route="r_10" depart="128" color="0,1,0"/>
    <vehicle id="SN_135" type="car" route="r_2" depart="135" color="0,0,1"/>
    <vehicle id="EW_136" type="car" route="r_5" depart="136" color= "1,0,0"/>
    <vehicle id="WE_138" type="car" route="r_7" depart="138" />
    <vehicle id="EW_141" type="car" route="r_5" depart="141" color= "1,0,0"/>
    <vehicle id="SN_143" type="car" route="r_1" depart="143" color="0,0,1"/>
    <vehicle id="WE_144" type="car" route="r_6" depart="144" />
    <vehicle id="WE_145" type="car" route="r_8" depart="145" />
    <vehicle id="EW_145" type="car" route="r_3" depart="145" color= "1,0,0"/>
    <vehicle id="NS_145" type="car" route="r_10" depart="145" color="0,1,0"/>
    <vehicle id="WE_148" type="truck" route="r_7" depart="148" />
    <vehicle id="EW_149" type="car" route="r_4" depart="149" color= "1,0,0"/>
    <vehicle id="WE_153" type="car" route="r_8" depart="153" />
    <vehicle id="WE_154" type="car" route="r_7" depart="154" />
    <vehicle id="EW_155" type="car" route="r_3" depart="155" color= "1,0,0"/>
    <vehicle id="SN_155" type="car" route="r_1" depart="155" color="0,0,1"/>
    <vehicle id="WE_164" type="car" route="r_7" depart="164" />
    <vehicle id="WE_167" type="truck" route="r_7" depart="167" />
    <vehicle id="NS_174" type="car" route="r_10" depart="174" color="0,1,0"/>
    <vehicle id="WE_176" type="car" route="r_8" depart="176" />
    <vehicle id="WE_177" type="car" route="r_8" depart="177" />
    <vehicle id="EW_183" type="car" route="r_4" depart="183" color= "1,0,0"/>
    <vehicle id="EW_184" type="car" route="r_3" depart="184" color= "1,0,0"/>
    <vehicle id="WE_195" type="car" route="r_6" depart="195" />
    <vehicle id="WE_199" type="car" route="r_8" depart="199" />
    <vehicle id="NS_199" type="car" route="r_10" depart="199" color="0,1,0"/>
    <vehicle id="SN_200" type="car" route="r_2" depart="200" color="0,0,1"/>
    <vehicle id="EW_205" type="car" route="r_5" depart="205" color= "1,0,0"/>
    <vehicle id="SN_210" type="truck" route="r_1" depart="210" color="0,0,1"/>
    <vehicle id="WE_219" type="car" route="r_8" depart="219" />
    <vehicle id="NS_221" type="car" route="r_11" depart="221" color="0,1,0"/>
    <vehicle id="NS_223" type="car" route="r_9" depart="223" color="0,1,0"/>
    <vehicle id="WE_224" type="car" route="r_8" depart="224" />
    <vehicle id="EW_225" type="car" route="r_3" depart="225" color= "1,0,0"/>
    <vehicle id="EW_226" type="car" route="r_5" depart="226" color= "1,0,0"/>
    <vehicle id="EW_227" type="car" route="r_3" depart="227" color= "1,0,0"/>
    <vehicle id="SN_233" type="car" route="r_0" depart="233" color="0,0,1"/>
    <vehicle id="WE_238" type="car" route="r_8" depart="238" />
    <vehicle id="WE_243" type="truck" route="r_8" depart="243" />
    <vehicle id="WE_246" type="car" route="r_6" depart="246" />
    <vehicle id="NS_246" type="car" route="r_9" depart="246" color="0,1,0"/>
    <vehicle id="NS_252" type="car" route="r_10" depart="252" color="0,1,0"/>
    <vehicle id="EW_254" type="car" route="r_5" depart="254" color= "1,0,0"/>
    <vehicle id="WE_256" type="car" route="r_7" depart="256" />
    <vehicle id="WE_257" type="car" route="r_8" depart="257" />
    <vehicle id="EW_261" type="car" route="r_3" depart="261" color= "1,0,0"/>
    <vehicle id="NS_263" type="car" route="r_10" depart="263" color="0,1,0"/>
    <vehicle id="SN_264" type="car" route="r_2" depart="264" color="0,0,1"/>
    <vehicle id="WE_272" type="truck" route="r_6" depart="272" />
    <vehicle id="SN_282" type="car" route="r_0" depart="282" color="0,0,1"/>
    <vehicle id="NS_284" type="car" route="r_10" depart="284" color="0,1,0"/>
    <vehicle id="WE_287" type="car" route="r_6" depart="287" />
    <vehicle id="WE_289" type="car" route="r_6" depart="289" />
    <vehicle id="SN_293" type="car" route="r_0" depart="293" color="0,0,1"/>
    <vehicle id="NS_297" type="car" route="r_9" depart="297" color="0,1,0"/>
    <vehicle id="EW_298" type="car" route="r_5" depart="298" color= "1,0,0"/>
    <vehicle id="SN_299" type="car" route="r_1" depart="299" color="0,0,1"/>
    <vehicle id="NS_302" type="car" route="r_10" depart="302" color="0,1,0"/>
    <vehicle id="WE_304" type="car" route="r_8" depart="304" />
    <vehicle id="NS_311" type="car" route="r_10" depart="311" color="0,1,0"/>
    <vehicle id="EW_314" type="car" route="r_3" depart="314" color= "1,0,0"/>
    <vehicle id="WE_317" type="car" route="r_7" depart="317" />
    <vehicle id="SN_318" type="car" route="r_2" depart="318" color="0,0,1"/>
    <vehicle id="EW_319" type="car" route="r_5" depart="319" color= "1,0,0"/>
    <vehicle id="SN_321" type="car" route="r_2" depart="321" color="0,0,1"/>
    <vehicle id="EW_323" type="car" route="r_5" depart="323" color= "1,0,0"/>
    <vehicle id="SN_323" type="car" route="r_1" depart="323" color="0,0,1"/>
    <vehicle id="NS_326" type="truck" route="r_10" depart="326" color="0,1,0"/>
    <vehicle id="SN_327" type="truck" route="r_0" depart="327" color="0,0,1"/>
    <vehicle id="NS_328" type="car" route="r_9" depart="328" color="0,1,0"/>
    <vehicle id="WE_329" type="car" route="r_6" depart="329" />
    <vehicle id="EW_332" type="car" route="r_3" depart="332" color= "1,0,0"/>
    <vehicle id="WE_334" type="car" route="r_8" depart="334" />
    <vehicle id="NS_339" type="car" route="r_11" depart="339" color="0,1,0"/>
    <vehicle id="NS_342" type="car" route="r_11" depart="342" color="0,1,0"/>
    <vehicle id="WE_343" type="car" route="r_7" depart="343" />
    <vehicle id="WE_344" type="car" route="r_8" depart="344" />
    <vehicle id="SN_348" type="car" route="r_2" depart="348" color="0,0,1"/>
    <vehicle id="NS_351" type="car" route="r_9" depart="351" color="0,1,0"/>
    <vehicle id="EW_352" type="car" route="r_4" depart="352" color= "1,0,0"/>
    <vehicle id="NS_354" type="car" route="r_9" depart="354" color="0,1,0"/>
    <vehicle id="NS_358" type="car" route="r_9" depart="358" color="0,1,0"/>
    <vehicle id="EW_359" type="car" route="r_4" depart="359" color= "1,0,0"/>
    <vehicle id="SN_359" type="car" route="r_0" depart="359" color="0,0,1"/>
    <vehicle id="WE_363" type="car" route="r_7" depart="363" />
    <vehicle id="SN_365" type="car" route="r_1" depart="365" color="0,0,1"/>
    <vehicle id="SN_369" type="car" route="r_0" depart="369" color="0,0,1"/>
    <vehicle id="NS_373" type="car" route="r_11" depart="373" color="0,1,0"/>
    <vehicle id="WE_376" type="car" route="r_6" depart="376" />
    <vehicle id="WE_378" type="car" route="r_6" depart="378" />
    <vehicle id="SN_380" type="car" route="r_1" depart="380" color="0,0,1"/>
    <vehicle id="NS_384" type="car" route="r_10" depart="384" color="0,1,0"/>
    <vehicle id="NS_386" type="truck" route="r_11" depart="386" color="0,1,0"/>
    <vehicle id="SN_386" type="car" route="r_0" depart="386" color="0,0,1"/>
    <vehicle id="EW_391" type="car" route="r_5" depart="391" color= "1,0,0"/>
    <vehicle id="NS_392" type="car" route="r_10" depart="392" color="0,1,0"/>
    <vehicle id="EW_393" type="car" route="r_3" depart="393" color= "1,0,0"/>
    <vehicle id="SN_394" type="car" route="r_1" depart="394" color="0,0,1"/>
    <vehicle id="WE_395" type="car" route="r_7" depart="395" />
    <vehicle id="SN_395" type="car" route="r_2" depart="395" color="0,0,1"/>
    <vehicle id="SN_397" type="car" route="r_1" depart="397" color="0,0,1"/>
    <vehicle id="EW_398" type="car" route="r_3" depart="398" color= "1,0,0"/>
    <vehicle id="NS_400" type="car" route="r_11" depart="400" color="0,1,0"/>
    <vehicle id="WE_406" type="car" route="r_7" depart="406" />
    <vehicle id="NS_407" type="car" route="r_10" depart="407" color="0,1,0"/>
    <vehicle id="NS_408" type="car" route="r_11" depart="408" color="0,1,0"/>
    <vehicle id="SN_409" type="car" route="r_1" depart="409" color="0,0,1"/>
    <vehicle id="WE_412" type="car" route="r_8" depart="412" />
    <vehicle id="EW_412" type="car" route="r_4" depart="412" color= "1,0,0"/>
    <vehicle id="SN_417" type="truck" route="r_0" depart="417" color="0,0,1"/>
    <vehicle id="WE_420" type="car" route="r_6" depart="420" />
    <vehicle id="NS_421" type="car" route="r_11" depart="421" color="0,1,0"/>
    <vehicle id="EW_424" type="truck" route="r_3" depart="424" color= "1,0,0"/>
    <vehicle id="NS_425" type="car" route="r_11" depart="425" color="0,1,0"/>
    <vehicle id="NS_430" type="car" route="r_10" depart="430" color="0,1,0"/>
    <vehicle id="EW_431" type="car" route="r_4" depart="431" color= "1,0,0"/>
    <vehicle id="SN_444" type="car" route="r_1" depart="444" color="0,0,1"/>
    <vehicle id="WE_446" type="car" route="r_6" depart="446" />
    <vehicle id="WE_454" type="car" route="r_7" depart="454" />
    <vehicle id="NS_455" type="car" route="r_10" depart="455" color="0,1,0"/>
    <vehicle id="SN_456" type="car" route="r_0" depart="456" color="0,0,1"/>
    <vehicle id="EW_462" type="car" route="r_3" depart="462" color= "1,0,0"/>
    <vehicle id="NS_463" type="car" route="r_11" depart="463" color="0,1,0"/>
    <vehicle id="SN_463" type="car" route="r_2" depart="463" color="0,0,1"/>
    <vehicle id="SN_465" type="car" route="r_2" depart="465" color="0,0,1"/>
    <vehicle id="WE_468" type="car" route="r_6" depart="468" />
    <vehicle id="NS_468" type="car" route="r_11" depart="468" color="0,1,0"/>
    <vehicle id="SN_472" type="car" route="r_2" depart="472" color="0,0,1"/>
    <vehicle id="NS_474" type="car" route="r_11" depart="474" color="0,1,0"/>
    <vehicle id="EW_476" type="car" route="r_3" depart="476" color= "1,0,0"/>
    <vehicle id="NS_482" type="car" route="r_11" depart="482" color="0,1,0"/>
    <vehicle id="SN_487" type="car" route="r_0" depart="487" color="0,0,1"/>
    <vehicle id="WE_492" type="car" route="r_6" depart="492" />
    <vehicle id="SN_493" type="car" route="r_2" depart="493" color="0,0,1"/>
    <vehicle id="WE_496" type="car" route="r_6" depart="496" />
    <vehicle id="NS_497" type="car" route="r_11" depart="497" color="0,1,0"/>
    <vehicle id="WE_503" type="car" route="r_8" depart="503" />
    <vehicle id="SN_504" type="car" route="r_1" depart="504" color="0,0,1"/>
    <vehicle id="WE_507" type="car" route="r_7" depart="507" />
    <vehicle id="EW_514" type="car" route="r_5" depart="514" color= "1,0,0"/>
    <vehicle id="EW_516" type="car" route="r_3" depart="516" color= "1,0,0"/>
    <vehicle id="SN_517" type="car" route="r_1" depart="517" color="0,0,1"/>
    <vehicle id="WE_518" type="car" route="r_8" depart="518" />
    <vehicle id="EW_518" type="car" route="r_4" depart="518" color= "1,0,0"/>
    <vehicle id="NS_518" type="car" route="r_9" depart="518" color="0,1,0"/>
    <vehicle id="NS_523" type="car" route="r_11" depart="523" color="0,1,0"/>
    <vehicle id="EW_527" type="car" route="r_5" depart="527" color= "1,0,0"/>
    <vehicle id="EW_529" type="car" route="r_3" depart="529" color= "1,0,0"/>
    <vehicle id="EW_530" type="truck" route="r_4" depart="530" color= "1,0,0"/>
    <vehicle id="SN_532" type="car" route="r_2" depart="532" color="0,0,1"/>
    <vehicle id="EW_533" type="car" route="r_4" depart="533" color= "1,0,0"/>
    <vehicle id="SN_535" type="truck" route="r_0" depart="535" color="0,0,1"/>
    <vehicle id="WE_537" type="car" route="r_6" depart="537" />
    <vehicle id="SN_537" type="car" route="r_0" depart="537" color="0,0,1"/>
    <vehicle id="WE_538" type="car" route="r_6" depart="538" />
    <vehicle id="SN_540" type="car" route="r_0" depart="540" color="0,0,1"/>
    <vehicle id="SN_542" type="car" route="r_0" depart="542" color="0,0,1"/>
    <vehicle id="SN_543" type="car" route="r_2" depart="543" color="0,0,1"/>
    <vehicle id="NS_544" type="car" route="r_9" depart="544" color="0,1,0"/>
    <vehicle id="NS_545" type="car" route="r_9" depart="545" color="0,1,0"/>
    <vehicle id="EW_546" type="car" route="r_5" depart="546" color= "1,0,0"/>
    <vehicle id="NS_546" type="car" route="r_10" depart="546" color="0,1,0"/>
    <vehicle id="SN_548" type="car" route="r_1" depart="548" color="0,0,1"/>
    <vehicle id="WE_553" type="car" route="r_7" depart="553" />
    <vehicle id="EW_553" type="car" route="r_5" depart="553" color= "1,0,0"/>
    <vehicle id="SN_558" type="car" route="r_1" depart="558" color="0,0,1"/>
    <vehicle id="SN_562" type="car" route="r_0" depart="562" color="0,0,1"/>
    <vehicle id="WE_564" type="car" route="r_6" depart="564" />
    <vehicle id="EW_565" type="car" route="r_4" depart="565" color= "1,0,0"/>
    <vehicle id="NS_566" type="car" route="r_10" depart="566" color="0,1,0"/>
    <vehicle id="NS_570" type="car" route="r_11" depart="570" color="0,1,0"/>
    <vehicle id="SN_575" type="car" route="r_0" depart="575" color="0,0,1"/>
    <vehicle id="EW_577" type="car" route="r_3" depart="577" color= "1,0,0"/>
    <vehicle id="EW_579" type="car" route="r_4" depart="579" color= "1,0,0"/>
    <vehicle id="NS_581" type="car" route="r_10" depart="581" color="0,1,0"/>
    <vehicle id="NS_583" type="truck" route="r_11" depart="583" color="0,1,0"/>
    <vehicle id="SN_583" type="car" route="r_2" depart="583" color="0,0,1"/>
    <vehicle id="SN_588" type="car" route="r_1" depart="588" color="0,0,1"/>
    <vehicle id="WE_591" type="car" route="r_8" depart="591" />
    <vehicle id="EW_592" type="car" route="r_3" depart="592" color= "1,0,0"/>
    <vehicle id="WE_596" type="car" route="r_7" depart="596" />
    <vehicle id="NS_599" type="car" route="r_10" depart="599" color="0,1,0"/>
    <vehicle id="EW_601" type="truck" route="r_5" depart="601" color= "1,0,0"/>
    <vehicle id="NS_602" type="truck" route="r_11" depart="602" color="0,1,0"/>
    <vehicle id="NS_611" type="car" route="r_11" depart="611" color="0,1,0"/>
    <vehicle id="WE_613" type="car" route="r_8" depart="613" />
    <vehicle id="NS_613" type="car" route="r_9" depart="613" color="0,1,0"/>
    <vehicle id="EW_619" type="car" route="r_4" depart="619" color= "1,0,0"/>
    <vehicle id="NS_619" type="car" route="r_11" depart="619" color="0,1,0"/>
    <vehicle id="SN_619" type="car" route="r_0" depart="619" color="0,0,1"/>
    <vehicle id="NS_623" type="car" route="r_11" depart="623" color="0,1,0"/>
    <vehicle id="SN_627" type="car" route="r_1" depart="627" color="0,0,1"/>
    <vehicle id="NS_630" type="car" route="r_9" depart="630" color="0,1,0"/>
    <vehicle id="EW_635" type="car" route="r_5" depart="635" color= "1,0,0"/>
    <vehicle id="NS_636" type="car" route="r_11" depart="636" color="0,1,0"/>
    <vehicle id="NS_640" type="car" route="r_11" depart="640" color="0,1,0"/>
    <vehicle id="SN_641" type="car" route="r_2" depart="641" color="0,0,1"/>
    <vehicle id="SN_643" type="car" route="r_1" depart="643" color="0,0,1"/>
    <vehicle id="WE_647" type="car" route="r_8" depart="647" />
    <vehicle id="WE_653" type="car" route="r_8" depart="653" />
    <vehicle id="EW_655" type="car" route="r_4" depart="655" color= "1,0,0"/>
    <vehicle id="EW_656" type="car" route="r_4" depart="656" color= "1,0,0"/>
    <vehicle id="SN_658" type="car" route="r_2" depart="658" color="0,0,1"/>
    <vehicle id="SN_661" type="car" route="r_1" depart="661" color="0,0,1"/>
    <vehicle id="NS_663" type="car" route="r_11" depart="663" color="0,1,0"/>
    <vehicle id="SN_664" type="car" route="r_2" depart="664" color="0,0,1"/>
    <vehicle id="SN_665" type="car" route="r_0" depart="665" color="0,0,1"/>
    <vehicle id="EW_666" type="car" route="r_3" depart="666" color= "1,0,0"/>
    <vehicle id="SN_666" type="car" route="r_0" depart="666" color="0,0,1"/>
    <vehicle id="NS_667" type="car" route="r_11" depart="667" color="0,1,0"/>
    <vehicle id="WE_669" type="car" route="r_7" depart="669" />
    <vehicle id="WE_670" type="truck" route="r_7" depart="670" />
    <vehicle id="SN_675" type="car" route="r_0" depart="675" color="0,0,1"/>
    <vehicle id="WE_682" type="car" route="r_8" depart="682" />
    <vehicle id="SN_682" type="car" route="r_0" depart="682" color="0,0,1"/>
    <vehicle id="EW_686" type="car" route="r_5" depart="686" color= "1,0,0"/>
    <vehicle id="SN_687" type="car" route="r_0" depart="687" color="0,0,1"/>
    <vehicle id="WE_693" type="car" route="r_8" depart="693" />
    <vehicle id="EW_693" type="car" route="r_5" depart="693" color= "1,0,0"/>
    <vehicle id="SN_694" type="car" route="r_2" depart="694" color="0,0,1"/>
    <vehicle id="EW_696" type="car" route="r_3" depart="696" color= "1,0,0"/>
    <vehicle id="EW_699" type="car" route="r_3" depart="699" color= "1,0,0"/>
    <vehicle id="NS_703" type="truck" route="r_11" depart="703" color="0,1,0"/>
    <vehicle id="WE_707" type="car" route="r_7" depart="707" />
    <vehicle id="WE_708" type="car" route="r_8" depart="708" />
    <vehicle id="WE_709" type="car" route="r_6" depart="709" />
    <vehicle id="SN_710" type="car" route="r_1" depart="710" color="0,0,1"/>
    <vehicle id="SN_712" type="car" route="r_2" depart="712" color="0,0,1"/>
    <vehicle id="SN_713" type="car" route="r_0" depart="713" color="0,0,1"/>
    <vehicle id="SN_715" type="truck" route="r_2" depart="715" color="0,0,1"/>
    <vehicle id="EW_716" type="car" route="r_5" depart="716" color= "1,0,0"/>
    <vehicle id="EW_721" type="car" route="r_3" depart="721" color= "1,0,0"/>
    <vehicle id="WE_725" type="car" route="r_6" depart="725" />
    <vehicle id="WE_729" type="car" route="r_6" depart="729" />
    <vehicle id="SN_729" type="car" route="r_1" depart="729" color="0,0,1"/>
    <vehicle id="EW_731" type="truck" route="r_4" depart="731" color= "1,0,0"/>
    <vehicle id="WE_734" type="car" route="r_8" depart="734" />
    <vehicle id="NS_739" type="car" route="r_9" depart="739" color="0,1,0"/>
    <vehicle id="SN_739" type="car" route="r_2" depart="739" color="0,0,1"/>
    <vehicle id="WE_740" type="car" route="r_8" depart="740" />
    <vehicle id="NS_742" type="car" route="r_11" depart="742" color="0,1,0"/>
    <vehicle id="EW_743" type="truck" route="r_3" depart="743" color= "1,0,0"/>
    <vehicle id="EW_746" type="car" route="r_3" depart="746" color= "1,0,0"/>
    <vehicle id="NS_751" type="car" route="r_9" depart="751" color="0,1,0"/>
    <vehicle id="WE_753" type="car" route="r_7" depart="753" />
    <vehicle id="NS_756" type="car" route="r_9" depart="756" color="0,1,0"/>
    <vehicle id="NS_758" type="car" route="r_11" depart="758" color="0,1,0"/>
    <vehicle id="SN_760" type="car" route="r_2" depart="760" color="0,0,1"/>
    <vehicle id="WE_765" type="car" route="r_7" depart="765" />
    <vehicle id="WE_766" type="car" route="r_7" depart="766" />
    <vehicle id="NS_766" type="car" route="r_11" depart="766" color="0,1,0"/>
    <vehicle id="SN_766" type="car" route="r_0" depart="766" color="0,0,1"/>
    <vehicle id="EW_773" type="car" route="r_5" depart="773" color= "1,0,0"/>
    <vehicle id="SN_776" type="car" route="r_1" depart="776" color="0,0,1"/>
    <vehicle id="WE_781" type="car" route="r_6" depart="781" />
    <vehicle id="EW_787" type="truck" route="r_4" depart="787" color= "1,0,0"/>
    <vehicle id="NS_790" type="car" route="r_9" depart="790" color="0,1,0"/>
    <vehicle id="SN_790" type="car" route="r_1" depart="790" color="0,0,1"/>
    <vehicle id="NS_794" type="car" route="r_10" depart="794" color="0,1,0"/>
    <vehicle id="EW_795" type="car" route="r_3" depart="795" color= "1,0,0"/>
    <vehicle id="SN_798" type="truck" route="r_1" depart="798" color="0,0,1"/>
    <vehicle id="SN_799" type="truck" route="r_0" depart="799" color="0,0,1"/>
    <vehicle id="EW_801" type="car" route="r_5" depart="801" color= "1,0,0"/>
    <vehicle id="EW_802" type="car" route="r_4" depart="802" color= "1,0,0"/>
    <vehicle id="WE_804" type="car" route="r_6" depart="804" />
    <vehicle id="NS_805" type="car" route="r_9" depart="805" color="0,1,0"/>
    <vehicle id="SN_806" type="car" route="r_1" depart="806" color="0,0,1"/>
    <vehicle id="SN_808" type="car" route="r_0" depart="808" color="0,0,1"/>
    <vehicle id="EW_809" type="car" route="r_5" depart="809" color= "1,0,0"/>
    <vehicle id="NS_811" type="car" route="r_10" depart="811" color="0,1,0"/>
    <vehicle id="EW_821" type="car" route="r_4" depart="821" color= "1,0,0"/>
    <vehicle id="SN_821" type="car" route="r_0" depart="821" color="0,0,1"/>
    <vehicle id="WE_822" type="car" route="r_8" depart="822" />
    <vehicle id="NS_822" type="truck" route="r_10" depart="822" color="0,1,0"/>
    <vehicle id="NS_825" type="car" route="r_9" depart="825" color="0,1,0"/>
    <vehicle id="NS_826" type="car" route="r_9" depart="826" color="0,1,0"/>
    <vehicle id="SN_828" type="car" route="r_2" depart="828" color="0,0,1"/>
    <vehicle id="EW_829" type="car" route="r_3" depart="829" color= "1,0,0"/>
    <vehicle id="NS_834" type="car" route="r_10" depart="834" color="0,1,0"/>
    <vehicle id="SN_838" type="car" route="r_1" depart="838" color="0,0,1"/>
    <vehicle id="EW_842" type="car" route="r_5" depart="842" color= "1,0,0"/>
    <vehicle id="NS_842" type="car" route="r_10" depart="842" color="0,1,0"/>
    <vehicle id="SN_854" type="car" route="r_0" depart="854" color="0,0,1"/>
    <vehicle id="WE_856" type="truck" route="r_7" depart="856" />
    <vehicle id="EW_858" type="car" route="r_4" depart="858" color= "1,0,0"/>
    <vehicle id="SN_858" type="car" route="r_1" depart="858" color="0,0,1"/>
    <vehicle id="SN_864" type="car" route="r_0" depart="864" color="0,0,1"/>
    <vehicle id="NS_866" type="car" route="r_11" depart="866" color="0,1,0"/>
    <vehicle id="WE_868" type="car" route="r_6" depart="868" />
    <vehicle id="SN_868" type="car" route="r_0" depart="868" color="0,0,1"/>
    <vehicle id="EW_870" type="car" route="r_5" depart="870" color= "1,0,0"/>
    <vehicle id="SN_872" type="car" route="r_1" depart="872" color="0,0,1"/>
    <vehicle id="NS_875" type="car" route="r_11" depart="875" color="0,1,0"/>
    <vehicle id="NS_885" type="car" route="r_11" depart="885" color="0,1,0"/>
    <vehicle id="WE_886" type="car" route="r_7" depart="886" />
    <vehicle id="NS_889" type="car" route="r_10" depart="889" color="0,1,0"/>
    <vehicle id="EW_890" type="car" route="r_3" depart="890" color= "1,0,0"/>
    <vehicle id="NS_896" type="car" route="r_10" depart="896" color="0,1,0"/>
    <vehicle id="WE_897" type="car" route="r_8" depart="897" />
    <vehicle id="NS_901" type="truck" route="r_10" depart="901" color="0,1,0"/>
    <vehicle id="SN_901" type="car" route="r_1" depart="901" color="0,0,1"/>
    <vehicle id="WE_903" type="car" route="r_8" depart="903" />
    <vehicle id="SN_903" type="car" route="r_2" depart="903" color="0,0,1"/>
    <vehicle id="SN_913" type="car" route="r_0" depart="913" color="0,0,1"/>
    <vehicle id="EW_914" type="car" route="r_3" depart="914" color= "1,0,0"/>
    <vehicle id="WE_915" type="car" route="r_7" depart="915" />
    <vehicle id="SN_915" type="car" route="r_2" depart="915" color="0,0,1"/>
    <vehicle id="WE_919" type="truck" route="r_7" depart="919" />
    <vehicle id="EW_920" type="car" route="r_3" depart="920" color= "1,0,0"/>
    <vehicle id="WE_926" type="car" route="r_7" depart="926" />
    <vehicle id="EW_927" type="car" route="r_4" depart="927" color= "1,0,0"/>
    <vehicle id="WE_928" type="car" route="r_6" depart="928" />
    <vehicle id="EW_929" type="car" route="r_5" depart="929" color= "1,0,0"/>
    <vehicle id="EW_930" type="car" route="r_4" depart="930" color= "1,0,0"/>
    <vehicle id="EW_931" type="car" route="r_3" depart="931" color= "1,0,0"/>
    <vehicle id="SN_931" type="truck" route="r_1" depart="931" color="0,0,1"/>
    <vehicle id="WE_935" type="car" route="r_7" depart="935" />
    <vehicle id="WE_937" type="car" route="r_6" depart="937" />
    <vehicle id="NS_937" type="truck" route="r_10" depart="937" color="0,1,0"/>
    <vehicle id="WE_939" type="car" route="r_6" depart="939" />
    <vehicle id="NS_939" type="car" route="r_10" depart="939" color="0,1,0"/>
    <vehicle id="NS_944" type="car" route="r_10" depart="944" color="0,1,0"/>
    <vehicle id="EW_945" type="car" route="r_3" depart="945" color= "1,0,0"/>
    <vehicle id="WE_950" type="car" route="r_7" depart="950" />
    <vehicle id="SN_953" type="car" route="r_0" depart="953" color="0,0,1"/>
    <vehicle id="SN_960" type="car" route="r_0" depart="960" color="0,0,1"/>
    <vehicle id="SN_964" type="car" route="r_1" depart="964" color="0,0,1"/>
    <vehicle id="WE_972" type="car" route="r_8" depart="972" />
    <vehicle id="EW_972" type="car" route="r_5" depart="972" color= "1,0,0"/>
    <vehicle id="SN_975" type="car" route="r_0" depart="975" color="0,0,1"/>
    <vehicle id="NS_979" type="car" route="r_10" depart="979" color="0,1,0"/>
    <vehicle id="SN_984" type="car" route="r_2" depart="984" color="0,0,1"/>
    <vehicle id="WE_987" type="car" route="r_7" depart="987" />
    <vehicle id="WE_989" type="car" route="r_8" depart="989" />
    <vehicle id="SN_994" type="car" route="r_2" depart="994" color="0,0,1"/>
    <vehicle id="WE_995" type="car" route="r_7" depart="995" />
    <vehicle id="EW_995" type="car" route="r_5" depart="995" color= "1,0,0"/>
    <vehicle id="NS_995" type="car" route="r_11" depart="995" color="0,1,0"/>
    <vehicle id="EW_998" type="truck" route="r_4" depart="998" color= "1,0,0"/>
    <vehicle id="SN_998" type="car" route="r_1" depart="998" color="0,0,1"/>
    <vehicle id="EW_1001" type="truck" route="r_5" depart="1001" color= "1,0,0"/>
    <vehicle id="WE_1004" type="car" route="r_8" depart="1004" />
    <vehicle id="EW_1004" type="car" route="r_4" depart="1004" color= "1,0,0"/>
    <vehicle id="SN_1006" type="car" route="r_1" depart="1006" color="0,0,1"/>
    <vehicle id="WE_1010" type="car" route="r_6" depart="1010" />
    <vehicle id="NS_1011" type="car" route="r_10" depart="1011" color="0,1,0"/>
    <vehicle id="WE_1013" type="car" route="r_7" depart="1013" />
    <vehicle id="NS_1014" type="car" route="r_11" depart="1014" color="0,1,0"/>
    <vehicle id="WE_1015" type="car" route="r_7" depart="1015" />
    <vehicle id="NS_1018" type="car" route="r_10" depart="1018" color="0,1,0"/>
    <vehicle id="WE_1030" type="car" route="r_7" depart="1030" />