<routes>
        <vType id="car" vClass="passenger" length="4" maxSpeed="25.0" accel="2.6" decel="4.5"/>
        <vType id="truck" vClass="truck" length="10" maxSpeed="20.0" accel="1.2" decel="2.5"/>

        <route id="r_0" edges="3i 1o"/>
        <route id="r_1" edges="3i 4o"/>
        <route id="r_10" edges="2i 3o"/>
        <route id="r_11" edges="2i 4o"/>
        <route id="r_2" edges="3i 2o"/>
        <route id="r_3" edges="4i 3o"/>
        <route id="r_4" edges="4i 2o"/>
        <route id="r_5" edges="4i 1o"/>
        <route id="r_6" edges="1i 2o"/>
        <route id="r_7" edges="1i 4o"/>
        <route id="r_8" edges="1i 3o"/>
        <route id="r_9" edges="2i 1o"/>
    <vehicle id="EW_2" type="car" route="r_5" depart="2" color= "1,0,0"/>
    <vehicle id="NS_4" type="car" route="r_11" depart="4" color="0,1,0"/>
    <vehicle id="EW_5" type="car" route="r_3" depart="5" color= "1,0,0"/>
    <vehicle id="NS_8" type="car" route="r_11" depart="8" color="0,1,0"/>
    <vehicle id="EW_11" type="car" route="r_3" depart="11" color= "1,0,0"/>
    <vehicle id="WE_12" type="car" route="r_6" depart="12" />
    <vehicle id="NS_12" type="truck" route="r_9" depart="12" color="0,1,0"/>
    <vehicle id="SN_15" type="car" route="r_0" depart="15" color="0,0,1"/>
    <vehicle id="SN_17" type="car" route="r_0" depart="17" color="0,0,1"/>
    <vehicle id="SN_19" type="car" route="r_2" depart="19" color="0,0,1"/>
    <vehicle id="NS_21" type="car" route="r_10" depart="21" color="0,1,0"/>
    <vehicle id="WE_26" type="car" route="r_6" depart="26" />
    <vehicle id="NS_31" type="car" route="r_9" depart="31" color="0,1,0"/>
    <vehicle id="WE_32" type="car" route="r_7" depart="32" />
    <vehicle id="SN_32" type="car" route="r_0" depart="32" color="0,0,1"/>
    <vehicle id="SN_43" type="car" route="r_0" depart="43" color="0,0,1"/>
    <vehicle id="NS_45" type="car" route="r_9" depart="45" color="0,1,0"/>
    <vehicle id="WE_51" type="car" route="r_8" depart="51" />
    <vehicle id="WE_52" type="car" route="r_6" depart="52" />
    <vehicle id="WE_61" type="car" route="r_7" depart="61" />
    <vehicle id="EW_67" type="car" route="r_5" depart="67" color= "1,0,0"/>
    <vehicle id="EW_69" type="car" route="r_3" depart="69" color= "1,0,0"/>
    <vehicle id="SN_69" type="car" route="r_0" depart="69" color="0,0,1"/>
    <vehicle id="NS_71" type="car" route="r_11" depart="71" color="0,1,0"/>
    <vehicle id="SN_72" type="car" route="r_2" depart="72" color="0,0,1"/>
    <vehicle id="SN_76" type="car" route="r_2" depart="76" color="0,0,1"/>
    <vehicle id="NS_78" type="truck" route="r_11" depart="78" color="0,1,0"/>
    <vehicle id="WE_85" type="car" route="r_6" depart="85" />
    <vehicle id="EW_88" type="car" route="r_4" depart="88" color= "1,0,0"/>
    <vehicle id="NS_89" type="car" route="r_10" depart="89" color="0,1,0"/>
    <vehicle id="EW_91" type="car" route="r_5" depart="91" color= "1,0,0"/>
    <vehicle id="EW_94" type="car" route="r_4" depart="94" color= "1,0,0"/>
    <vehicle id="WE_97" type="car" route="r_6" depart="97" />
    <vehicle id="EW_97" type="truck" route="r_5" depart="97" color= "1,0,0"/>
    <vehicle id="WE_98" type="car" route="r_7" depart="98" />
    <vehicle id="SN_98" type="car" route="r_0" depart="98" color="0,0,1"/>
    <vehicle id="WE_100" type="car" route="r_6" depart="100" />
    <vehicle id="SN_104" type="car" route="r_2" depart="104" color="0,0,1"/>
    <vehicle id="EW_106" type="car" route="r_5" depart="106" color= "1,0,0"/>
    <vehicle id="SN_114" type="car" route="r_2" depart="114" color="0,0,1"/>
    <vehicle id="WE_115" type="car" route="r_8" depart="115" />
    <vehicle id="WE_122" type="car" route="r_8" depart="122" />
    <vehicle id="SN_127" type="car" route="r_2" depart="127" color="0,0,1"/>
    <vehicle id="NS_130" type="car" route="r_9" depart="130" color="0,1,0"/>
    <vehicle id="SN_130" type="car" route="r_1" depart="130" color="0,0,1"/>
    <vehicle id="NS_131" type="car" route="r_10" depart="131" color="0,1,0"/>
    <vehicle id="WE_136" type="truck" route="r_6" depart="136" />
    <vehicle id="NS_138" type="car" route="r_9" depart="138" color="0,1,0"/>
    <vehicle id="EW_141" type="car" route="r_3" depart="141" color= "1,0,0"/>
    <vehicle id="NS_141" type="car" route="r_9" depart="141" color="0,1,0"/>
    <vehicle id="NS_143" type="car" route="r_10" depart="143" color="0,1,0"/>
    <vehicle id="EW_155" type="car" route="r_4" depart="155" color= "1,0,0"/>
    <vehicle id="SN_157" type="car" route="r_1" depart="157" color="0,0,1"/>
    <vehicle id="NS_160" type="car" route="r_10" depart="160" color="0,1,0"/>
    <vehicle id="EW_161" type="car" route="r_4" depart="161" color= "1,0,0"/>
    <vehicle id="NS_163" type="car" route="r_10" depart="163" color="0,1,0"/>
    <vehicle id="NS_164" type="car" route="r_10" depart="164" color="0,1,0"/>
    <vehicle id="SN_165" type="car" route="r_2" depart="165" color="0,0,1"/>
    <vehicle id="SN_168" type="truck" route="r_2" depart="168" color="0,0,1"/>
    <vehicle id="WE_170" type="car" route="r_7" depart="170" />
    <vehicle id="NS_170" type="car" route="r_11" depart="170" color="0,1,0"/>
    <vehicle id="NS_173" type="car" route="r_10" depart="173" color="0,1,0"/>
    <vehicle id="NS_179" type="car" route="r_11" depart="179" color="0,1,0"/>
    <vehicle id="EW_180" type="car" route="r_5" depart="180" color= "1,0,0"/>
    <vehicle id="NS_181" type="car" route="r_10" depart="181" color="0,1,0"/>
    <vehicle id="WE_182" type="car" route="r_8" depart="182" />
    <vehicle id="EW_186" type="car" route="r_3" depart="186" color= "1,0,0"/>
    <vehicle id="WE_189" type="car" route="r_6" depart="189" />
    <vehicle id="EW_189" type="car" route="r_5" depart="189" color= "1,0,0"/>
    <vehicle id="NS_190" type="car" route="r_9" depart="190" color="0,1,0"/>
    <vehicle id="EW_192" type="car" route="r_5" depart="192" color= "1,0,0"/>
    <vehicle id="SN_192" type="car" route="r_0" depart="192" color="0,0,1"/>
    <vehicle id="NS_198" type="car" route="r_11" depart="198" color="0,1,0"/>
    <vehicle id="EW_200" type="car" route="r_4" depart="200" color= "1,0,0"/>
    <vehicle id="WE_201" type="car" route="r_6" depart="201" />
    <vehicle id="NS_201" type="car" route="r_10" depart="201" color="0,1,0"/>
    <vehicle id="SN_205" type="car" route="r_1" depart="205" color="0,0,1"/>
    <vehicle id="EW_216" type="truck" route="r_5" depart="216" color= "1,0,0"/>
    <vehicle id="EW_220" type="car" route="r_4" depart="220" color= "1,0,0"/>
    <vehicle id="WE_222" type="car" route="r_8" depart="222" />
    <vehicle id="EW_222" type="car" route="r_4" depart="222" color= "1,0,0"/>
    <vehicle id="NS_222" type="car" route="r_9" depart="222" color="0,1,0"/>
    <vehicle id="WE_226" type="car" route="r_6" depart="226" />
    <vehicle id="EW_228" type="car" route="r_5" depart="228" color= "1,0,0"/>
    <vehicle id="SN_228" type="car" route="r_2" depart="228" color="0,0,1"/>
    <vehicle id="NS_229" type="car" route="r_11" depart="229" color="0,1,0"/>
    <vehicle id="SN_229" type="car" route="r_2" depart="229" color="0,0,1"/>
    <vehicle id="WE_231" type="car" route="r_8" depart="231" />
    <vehicle id="WE_234" type="car" route="r_6" depart="234" />
    <vehicle id="WE_240" type="truck" route="r_7" depart="240" />
    <vehicle id="NS_242" type="car" route="r_11" depart="242" color="0,1,0"/>
    <vehicle id="EW_245" type="car" route="r_3" depart="245" color= "1,0,0"/>
    <vehicle id="SN_246" type="car" route="r_2" depart="246" color="0,0,1"/>
    <vehicle id="EW_248" type="car" route="r_3" depart="248" color= "1,0,0"/>
    <vehicle id="NS_251" type="car" route="r_11" depart="251" color="0,1,0"/>
    <vehicle id="SN_252" type="car" route="r_2" depart="252" color="0,0,1"/>
    <vehicle id="EW_256" type="car" route="r_5" depart="256" color= "1,0,0"/>
    <vehicle id="SN_257" type="car" route="r_1" depart="257" color="0,0,1"/>
    <vehicle id="WE_261" type="car" route="r_7" depart="261" />
    <vehicle id="WE_268" type="car" route="r_8" depart="268" />
    <vehicle id="SN_272" type="car" route="r_0" depart="272" color="0,0,1"/>
    <vehicle id="NS_278" type="car" route="r_10" depart="278" color="0,1,0"/>
    <vehicle id="WE_279" type="car" route="r_8" depart="279" />
    <vehicle id="EW_282" type="car" route="r_5" depart="282" color= "1,0,0"/>
    <vehicle id="SN_292" type="car" route="r_0" depart="292" color="0,0,1"/>
    <vehicle id="WE_299" type="car" route="r_8" depart="299" />
    <vehicle id="NS_300" type="car" route="r_9" depart="300" color="0,1,0"/>
    <vehicle id="EW_306" type="car" route="r_4" depart="306" color= "1,0,0"/>
    <vehicle id="EW_310" type="car" route="r_3" depart="310" color= "1,0,0"/>
    <vehicle id="NS_315" type="car" route="r_11" depart="315" color="0,1,0"/>
    <vehicle id="NS_324" type="car" route="r_9" depart="324" color="0,1,0"/>
    <vehicle id="EW_326" type="car" route="r_3" depart="326" color= "1,0,0"/>
    <vehicle id="SN_326" type="truck" route="r_2" depart="326" color="0,0,1"/>
    <vehicle id="WE_328" type="car" route="r_8" depart="328" />
    <vehicle id="EW_330" type="car" route="r_3" depart="330" color= "1,0,0"/>
    <vehicle id="EW_332" type="car" route="r_3" depart="332" color= "1,0,0"/>
    <vehicle id="WE_334" type="truck" route="r_8" depart="334" />
    <vehicle id="EW_340" type="car" route="r_3" depart="340" color= "1,0,0"/>
    <vehicle id="EW_341" type="car" route="r_4" depart="341" color= "1,0,0"/>
    <vehicle id="WE_344" type="car" route="r_6" depart="344" />
    <vehicle id="EW_349" type="car" route="r_3" depart="349" color= "1,0,0"/>
    <vehicle id="EW_358" type="car" route="r_5" depart="358" color= "1,0,0"/>
    <vehicle id="NS_358" type="car" route="r_11" depart="358" color="0,1,0"/>
    <vehicle id="EW_361" type="car" route="r_5" depart="361" color= "1,0,0"/>
    <vehicle id="NS_364" type="car" route="r_10" depart="364" color="0,1,0"/>
    <vehicle id="SN_370" type="car" route="r_1" depart="370" color="0,0,1"/>
    <vehicle id="EW_373" type="car" route="r_5" depart="373" color= "1,0,0"/>
    <vehicle id="SN_374" type="car" route="r_1" depart="374" color="0,0,1"/>
    <vehicle id="EW_376" type="car" route="r_5" depart="376" color= "1,0,0"/>
    <vehicle id="EW_381" type="car" route="r_4" depart="381" color= "1,0,0"/>
    <vehicle id="EW_382" type="car" route="r_3" depart="382" color= "1,0,0"/>
    <vehicle id="SN_382" type="truck" route="r_2" depart="382" color="0,0,1"/>
    <vehicle id="NS_383" type="car" route="r_11" depart="383" color="0,1,0"/>
    <vehicle id="EW_386" type="car" route="r_5" depart="386" color= "1,0,0"/>
    <vehicle id="WE_387" type="car" route="r_8" depart="387" />
    <vehicle id="EW_388" type="car" route="r_3" depart="388" color= "1,0,0"/>
    <vehicle id="NS_388" type="car" route="r_11" depart="388" color="0,1,0"/>
    <vehicle id="NS_389" type="truck" route="r_11" depart="389" color="0,1,0"/>
    <vehicle id="NS_392" type="car" route="r_11" depart="392" color="0,1,0"/>
    <vehicle id="NS_396" type="car" route="r_9" depart="396" color="0,1,0"/>
    <vehicle id="NS_398" type="car" route="r_11" depart="398" color="0,1,0"/>
    <vehicle id="SN_400" type="car" route="r_1" depart="400" color="0,0,1"/>
    <vehicle id="NS_402" type="car" route="r_11" depart="402" color="0,1,0"/>
    <vehicle id="WE_404" type="car" route="r_7" depart="404" />
    <vehicle id="NS_407" type="car" route="r_10" depart="407" color="0,1,0"/>
    <vehicle id="EW_412" type="car" route="r_3" depart="412" color= "1,0,0"/>
    <vehicle id="SN_412" type="car" route="r_2" depart="412" color="0,0,1"/>
    <vehicle id="SN_415" type="car" route="r_1" depart="415" color="0,0,1"/>
    <vehicle id="SN_418" type="car" route="r_0" depart="418" color="0,0,1"/>
    <vehicle id="NS_421" type="car" route="r_10" depart="421" color="0,1,0"/>
    <vehicle id="SN_426" type="car" route="r_0" depart="426" color="0,0,1"/>
    <vehicle id="NS_428" type="car" route="r_10" depart="428" color="0,1,0"/>
    <vehicle id="SN_429" type="car" route="r_1" depart="429" color="0,0,1"/>
    <vehicle id="NS_430" type="car" route="r_11" depart="430" color="0,1,0"/>
    <vehicle id="EW_433" type="car" route="r_4" depart="433" color= "1,0,0"/>
    <vehicle id="NS_439" type="car" route="r_9" depart="439" color="0,1,0"/>
    <vehicle id="WE_441" type="car" route="r_7" depart="441" />
    <vehicle id="WE_442" type="car" route="r_6" depart="442" />
    <vehicle id="SN_442" type="car" route="r_1" depart="442" color="0,0,1"/>
    <vehicle id="NS_443" type="car" route="r_9" depart="443" color="0,1,0"/>
    <vehicle id="SN_449" type="car" route="r_0" depart="449" color="0,0,1"/>
    <vehicle id="WE_452" type="car" route="r_6" depart="452" />
    <vehicle id="EW_452" type="car" route="r_4" depart="452" color= "1,0,0"/>
    <vehicle id="EW_453" type="car" route="r_5" depart="453" color= "1,0,0"/>
    <vehicle id="SN_460" type="car" route="r_2" depart="460" color="0,0,1"/>
    <vehicle id="EW_463" type="car" route="r_3" depart="463" color= "1,0,0"/>
    <vehicle id="EW_465" type="car" route="r_5" depart="465" color= "1,0,0"/>
    <vehicle id="NS_468" type="car" route="r_10" depart="468" color="0,1,0"/>
    <vehicle id="EW_469" type="car" route="r_3" depart="469" color= "1,0,0"/>
    <vehicle id="NS_476" type="car" route="r_10" depart="476" color="0,1,0"/>
    <vehicle id="NS_483" type="car" route="r_10" depart="483" color="0,1,0"/>
    <vehicle id="WE_484" type="car" route="r_8" depart="484" />
    <vehicle id="NS_486" type="car" route="r_9" depart="486" color="0,1,0"/>
    <vehicle id="WE_487" type="car" route="r_7" depart="487" />
    <vehicle id="NS_488" type="car" route="r_10" depart="488" color="0,1,0"/>
    <vehicle id="NS_491" type="car" route="r_10" depart="491" color="0,1,0"/>
    <vehicle id="NS_497" type="car" route="r_9" depart="497" color="0,1,0"/>
    <vehicle id="NS_499" type="car" route="r_11" depart="499" color="0,1,0"/>
    <vehicle id="SN_506" type="car" route="r_0" depart="506" color="0,0,1"/>
    <vehicle id="EW_508" type="car" route="r_5" depart="508" color= "1,0,0"/>
    <vehicle id="SN_510" type="car" route="r_0" depart="510" color="0,0,1"/>
    <vehicle id="SN_515" type="car" route="r_2" depart="515" color="0,0,1"/>
    <vehicle id="NS_517" type="car" route="r_9" depart="517" color="0,1,0"/>
    <vehicle id="WE_518" type="car" route="r_6" depart="518" />
    <vehicle id="NS_519" type="car" route="r_10" depart="519" color="0,1,0"/>
    <vehicle id="WE_520" type="car" route="r_6" depart="520" />
    <vehicle id="NS_525" type="car" route="r_10" depart="525" color="0,1,0"/>
    <vehicle id="WE_528" type="truck" route="r_7" depart="528" />
    <vehicle id="WE_531" type="car" route="r_8" depart="531" />
    <vehicle id="WE_533" type="car" route="r_8" depart="533" />
    <vehicle id="EW_541" type="car" route="r_4" depart="541" color= "1,0,0"/>
    <vehicle id="SN_542" type="car" route="r_0" depart="542" color="0,0,1"/>
    <vehicle id="SN_544" type="car" route="r_1" depart="544" color="0,0,1"/>
    <vehicle id="SN_545" type="car" route="r_2" depart="545" color="0,0,1"/>
    <vehicle id="SN_546" type="car" route="r_0" depart="546" color="0,0,1"/>
    <vehicle id="EW_550" type="car" route="r_4" depart="550" color= "1,0,0"/>
    <vehicle id="SN_553" type="car" route="r_2" depart="553" color="0,0,1"/>
    <vehicle id="SN_555" type="car" route="r_0" depart="555" color="0,0,1"/>
    <vehicle id="EW_556" type="car" route="r_4" depart="556" color= "1,0,0"/>
    <vehicle id="WE_557" type="car" route="r_6" depart="557" />
    <vehicle id="WE_562" type="car" route="r_6" depart="562" />
    <vehicle id="NS_565" type="car" route="r_11" depart="565" color="0,1,0"/>
    <vehicle id="SN_568" type="car" route="r_1" depart="568" color="0,0,1"/>
    <vehicle id="EW_573" type="car" route="r_3" depart="573" color= "1,0,0"/>
    <vehicle id="NS_578" type="car" route="r_11" depart="578" color="0,1,0"/>
    <vehicle id="NS_583" type="car" route="r_10" depart="583" color="0,1,0"/>
    <vehicle id="SN_588" type="car" route="r_0" depart="588" color="0,0,1"/>
    <vehicle id="WE_592" type="car" route="r_8" depart="592" />
    <vehicle id="EW_594" type="car" route="r_5" depart="594" color= "1,0,0"/>
    <vehicle id="NS_597" type="car" route="r_9" depart="597" color="0,1,0"/>
    <vehicle id="SN_600" type="car" route="r_0" depart="600" color="0,0,1"/>
    <vehicle id="SN_602" type="car" route="r_2" depart="602" color="0,0,1"/>
    <vehicle id="WE_605" type="car" route="r_6" depart="605" />
    <vehicle id="WE_608" type="car" route="r_8" depart="608" />
    <vehicle id="SN_611" type="truck" route="r_1" depart="611" color="0,0,1"/>
    <vehicle id="NS_613" type="car" route="r_10" depart="613" color="0,1,0"/>
    <vehicle id="NS_614" type="car" route="r_9" depart="614" color="0,1,0"/>
    <vehicle id="WE_615" type="car" route="r_8" depart="615" />
    <vehicle id="NS_615" type="car" route="r_9" depart="615" color="0,1,0"/>
    <vehicle id="SN_621" type="car" route="r_2" depart="621" color="0,0,1"/>
    <vehicle id="WE_622" type="car" route="r_6" depart="622" />
    <vehicle id="EW_623" type="truck" route="r_3" depart="623" color= "1,0,0"/>
    <vehicle id="SN_624" type="truck" route="r_0" depart="624" color="0,0,1"/>
    <vehicle id="WE_628" type="car" route="r_8" depart="628" />
    <vehicle id="WE_630" type="car" route="r_8" depart="630" />
    <vehicle id="NS_632" type="truck" route="r_9" depart="632" color="0,1,0"/>
    <vehicle id="EW_633" type="car" route="r_4" depart="633" color= "1,0,0"/>
    <vehicle id="SN_636" type="car" route="r_1" depart="636" color="0,0,1"/>
    <vehicle id="EW_638" type="car" route="r_3" depart="638" color= "1,0,0"/>
    <vehicle id="NS_642" type="car" route="r_9" depart="642" color="0,1,0"/>
    <vehicle id="EW_648" type="car" route="r_5" depart="648" color= "1,0,0"/>
    <vehicle id="NS_648" type="car" route="r_11" depart="648" color="0,1,0"/>
    <vehicle id="NS_652" type="car" route="r_10" depart="652" color="0,1,0"/>
    <vehicle id="EW_653" type="car" route="r_4" depart="653" color= "1,0,0"/>
    <vehicle id="NS_655" type="car" route="r_10" depart="655" color="0,1,0"/>
    <vehicle id="NS_658" type="car" route="r_9" depart="658" color="0,1,0"/>
    <vehicle id="WE_659" type="car" route="r_7" depart="659" />
    <vehicle id="EW_660" type="car" route="r_4" depart="660" color= "1,0,0"/>
    <vehicle id="WE_664" type="car" route="r_7" depart="664" />
    <vehicle id="SN_670" type="car" route="r_0" depart="670" color="0,0,1"/>
    <vehicle id="SN_671" type="car" route="r_1" depart="671" color="0,0,1"/>
    <vehicle id="NS_672" type="car" route="r_10" depart="672" color="0,1,0"/>
    <vehicle id="EW_679" type="car" route="r_3" depart="679" color= "1,0,0"/>
    <vehicle id="SN_679" type="car" route="r_0" depart="679" color="0,0,1"/>
    <vehicle id="NS_680" type="truck" route="r_9" depart="680" color="0,1,0"/>
    <vehicle id="EW_686" type="car" route="r_5" depart="686" color= "1,0,0"/>
    <vehicle id="EW_690" type="car" route="r_4" depart="690" color= "1,0,0"/>
    <vehicle id="NS_697" type="car" route="r_10" depart="697" color="0,1,0"/>
    <vehicle id="EW_706" type="car" route="r_4" depart="706" color= "1,0,0"/>
    <vehicle id="NS_713" type="car" route="r_9" depart="713" color="0,1,0"/>
    <vehicle id="NS_714" type="truck" route="r_10" depart="714" color="0,1,0"/>
    <vehicle id="EW_716" type="car" route="r_4" depart="716" color= "1,0,0"/>
    <vehicle id="NS_723" type="truck" route="r_9" depart="723" color="0,1,0"/>
    <vehicle id="NS_724" type="car" route="r_10" depart="724" color="0,1,0"/>
    <vehicle id="SN_730" type="car" route="r_0" depart="730" color="0,0,1"/>
    <vehicle id="WE_731" type="car" route="r_7" depart="731" />
    <vehicle id="WE_741" type="truck" route="r_7" depart="741" />
    <vehicle id="EW_745" type="car" route="r_4" depart="745" color= "1,0,0"/>
    <vehicle id="NS_748" type="car" route="r_9" depart="748" color="0,1,0"/>
    <vehicle id="EW_749" type="car" route="r_4" depart="749" color= "1,0,0"/>
    <vehicle id="NS_750" type="car" route="r_10" depart="750" color="0,1,0"/>
    <vehicle id="EW_755" type="car" route="r_5" depart="755" color= "1,0,0"/>
    <vehicle id="NS_760" type="car" route="r_9" depart="760" color="0,1,0"/>
    <vehicle id="NS_761" type="car" route="r_10" depart="761" color="0,1,0"/>
    <vehicle id="NS_763" type="car" route="r_11" depart="763" color="0,1,0"/>
    <vehicle id="WE_766" type="car" route="r_6" depart="766" />
    <vehicle id="EW_769" type="car" route="r_3" depart="769" color= "1,0,0"/>
    <vehicle id="SN_769" type="car" route="r_2" depart="769" color="0,0,1"/>
    <vehicle id="EW_771" type="truck" route="r_5" depart="771" color= "1,0,0"/>
    <vehicle id="EW_774" type="truck" route="r_3" depart="774" color= "1,0,0"/>
    <vehicle id="NS_774" type="car" route="r_10" depart="774" color="0,1,0"/>
    <vehicle id="EW_779" type="car" route="r_3" depart="779" color= "1,0,0"/>
    <vehicle id="NS_781" type="car" route="r_10" depart="781" color="0,1,0"/>
    <vehicle id="NS_782" type="car" route="r_10" depart="782" color="0,1,0"/>
    <vehicle id="SN_783" type="truck" route="r_0" depart="783" color="0,0,1"/>
    <vehicle id="SN_787" type="truck" route="r_0" depart="787" color="0,0,1"/>
    <vehicle id="SN_797" type="car" route="r_1" depart="797" color="0,0,1"/>
    <vehicle id="SN_805" type="car" route="r_0" depart="805" color="0,0,1"/>
    <vehicle id="NS_806" type="car" route="r_10" depart="806" color="0,1,0"/>
    <vehicle id="SN_807" type="car" route="r_0" depart="807" color="0,0,1"/>
    <vehicle id="NS_808" type="car" route="r_11" depart="808" color="0,1,0"/>
    <vehicle id="WE_812" type="truck" route="r_8" depart="812" />
    <vehicle id="NS_814" type="car" route="r_11" depart="814" color="0,1,0"/>
    <vehicle id="EW_830" type="car" route="r_3" depart="830" color= "1,0,0"/>
    <vehicle id="NS_830" type="car" route="r_9" depart="830" color="0,1,0"/>
    <vehicle id="SN_834" type="car" route="r_1" depart="834" color="0,0,1"/>
    <vehicle id="SN_835" type="car" route="r_0" depart="835" color="0,0,1"/>
    <vehicle id="SN_836" type="car" route="r_0" depart="836" color="0,0,1"/>
    <vehicle id="WE_837" type="car" route="r_8" depart="837" />
    <vehicle id="EW_844" type="car" route="r_4" depart="844" color= "1,0,0"/>
    <vehicle id="SN_844" type="car" route="r_2" depart="844" color="0,0,1"/>
    <vehicle id="EW_854" type="car" route="r_3" depart="854" color= "1,0,0"/>
    <vehicle id="SN_855" type="car" route="r_1" depart="855" color="0,0,1"/>
    <vehicle id="NS_859" type="car" route="r_9" depart="859" color="0,1,0"/>
    <vehicle id="NS_860" type="truck" route="r_9" depart="860" color="0,1,0"/>
    <vehicle id="NS_862" type="car" route="r_11" depart="862" color="0,1,0"/>
    <vehicle id="SN_865" type="car" route="r_0" depart="865" color="0,0,1"/>
    <vehicle id="NS_867" type="car" route="r_9" depart="867" color="0,1,0"/>
    <vehicle id="SN_867" type="truck" route="r_1" depart="867" color="0,0,1"/>
    <vehicle id="NS_870" type="car" route="r_10" depart="870" color="0,1,0"/>
    <vehicle id="SN_874" type="car" route="r_0" depart="874" color="0,0,1"/>
    <vehicle id="EW_878" type="car" route="r_5" depart="878" color= "1,0,0"/>
    <vehicle id="SN_878" type="car" route="r_0" depart="878" color="0,0,1"/>
    <vehicle id="WE_882" type="car" route="r_8" depart="882" />
    <vehicle id="SN_882" type="car" route="r_2" depart="882" color="0,0,1"/>
    <vehicle id="EW_886" type="car" route="r_5" depart="886" color= "1,0,0"/>
    <vehicle id="WE_893" type="truck" route="r_7" depart="893" />
    <vehicle id="WE_894" type="car" route="r_8" depart="894" />
    <vehicle id="EW_894" type="car" route="r_4" depart="894" color= "1,0,0"/>
    <vehicle id="SN_898" type="car" route="r_0" depart="898" color="0,0,1"/>
    <vehicle id="EW_899" type="car" route="r_4" depart="899" color= "1,0,0"/>
    <vehicle id="SN_899" type="car" route="r_2" depart="899" color="0,0,1"/>
    <vehicle id="NS_902" type="car" route="r_11" depart="902" color="0,1,0"/>
    <vehicle id="SN_903" type="car" route="r_2" depart="903" color="0,0,1"/>
    <vehicle id="NS_908" type="car" route="r_9" depart="908" color="0,1,0"/>
    <vehicle id="EW_918" type="car" route="r_4" depart="918" color= "1,0,0"/>
    <vehicle id="WE_928" type="car" route="r_8" depart="928" />
    <vehicle id="SN_928" type="truck" route="r_1" depart="928" color="0,0,1"/>
    <vehicle id="NS_933" type="car" route="r_11" depart="933" color="0,1,0"/>
    <vehicle id="SN_934" type="car" route="r_1" depart="934" color="0,0,1"/>
    <vehicle id="NS_943" type="car" route="r_11" depart="943" color="0,1,0"/>
    <vehicle id="SN_946" type="car" route="r_2" depart="946" color="0,0,1"/>
    <vehicle id="NS_950" type="truck" route="r_10" depart="950" color="0,1,0"/>
    <vehicle id="EW_954" type="car" route="r_5" depart="954" color= "1,0,0"/>
    <vehicle id="EW_959" type="car" route="r_5" depart="959" color= "1,0,0"/>
    <vehicle id="SN_960" type="truck" route="r_2" depart="960" color="0,0,1"/>
    <vehicle id="NS_962" type="car" route="r_10" depart="962" color="0,1,0"/>
    <vehicle id="SN_962" type="car" route="r_1" depart="962" color="0,0,1"/>
    <vehicle id="NS_963" type="car" route="r_9" depart="963" color="0,1,0"/>
    <vehicle id="NS_964" type="car" route="r_9" depart="964" color="0,1,0"/>
    <vehicle id="SN_964" type="car" route="r_2" depart="964" color="0,0,1"/>
    <vehicle id="NS_966" type="car" route="r_9" depart="966" color="0,1,0"/>
    <vehicle id="WE_973" type="car" route="r_7" depart="973" />
    <vehicle id="SN_973" type="car" route="r_1" depart="973" color="0,0,1"/>
    <vehicle id="WE_974" type="car" route="r_8" depart="974" />
    <vehicle id="SN_975" type="car" route="r_1" depart="975" color="0,0,1"/>
    <vehicle id="WE_977" type="truck" route="r_7" depart="977" />
    <vehicle id="WE_978" type="car" route="r_7" depart="978" />
    <vehicle id="WE_982" type="car" route="r_6" depart="982" />
    <vehicle id="WE_983" type="car" route="r_7" depart="983" />
    <vehicle id="NS_988" type="car" route="r_11" depart="988" color="0,1,0"/>
    <vehicle id="SN_988" type="car" route="r_2" depart="988" color="0,0,1"/>
    <vehicle id="NS_989" type="truck" route="r_11" depart="989" color="0,1,0"/>
    <vehicle id="EW_990" type="car" route="r_3" depart="990" color= "1,0,0"/>
    <vehicle id="NS_994" type="car" route="r_11" depart="994" color="0,1,0"/>
    <vehicle id="SN_995" type="car" route="r_0" depart="995" color="0,0,1"/>
    <vehicle id="NS_999" type="truck" route="r_10" depart="999" color="0,1,0"/>
    <vehicle id="NS_1000" type="truck" route="r_10" depart="1000" color="0,1,0"/>
    <vehicle id="NS_1001" type="truck" route="r_11" depart="1001" color="0,1,0"/>
    <vehicle id="SN_1001" type="car" route="r_2" depart="1001" color="0,0,1"/>
    <vehicle id="SN_1003" type="car" route="r_1" depart="1003" color="0,0,1"/>
    <vehicle id="EW_1005" type="car" route="r_4" depart="1005" color= "1,0,0"/>
    <vehicle id="NS_1008" type="car" route="r_10" depart="1008" color="0,1,0"/>
    <vehicle id="EW_1009" type="car" route="r_5" depart="1009" color= "1,0,0"/>
    <vehicle id="WE_1010" type="car" route="r_8" depart="1010" />
    <vehicle id="SN_1018" type="car" route="r_1" depart="1018" color="0,0,1"/>
    <vehicle id="SN_1020" type="car" route="r_1" depart="1020" color="0,0,1"/>
    <vehicle id="NS_1027" type="car" route="r_9" depart="1027" color="0,1,0"/>
    <vehicle id="EW_1031" type="car" route="r_4" depart="1031" color= "1,0,0"/>
    <vehicle id="NS_1034" type="car" route="r_10" depart="1034" color="0,1,0"/>
    <vehicle id="WE_1036" type="car" route="r_7" depart="1036" />
    <vehicle id="EW_1037" type="car" route="r_3" depart="1037" color= "1,0,0"/>
    <vehicle id="SN_1039" type="car" route="r_0" depart="1039" color="0,0,1"/>
    <vehicle id="WE_1044" type="car" route="r_8" depart="1044" />
    <vehicle id="SN_1045" type="car" route="r_2" depart="1045" color="0,0,1"/>
    <vehicle id="NS_1053" type="car" route="r_10" depart="1053" color="0,1,0"/>
    <vehicle id="NS_1054" type="car" route="r_11" depart="1054" color="0,1,0"/>
    <vehicle id="EW_1056" type="car" route="r_5" depart="1056" color= "1,0,0"/>
    <vehicle id="NS_1057" type="car" route="r_9" depart="1057" color="0,1,0"/>
    <vehicle id="WE_1060" type="car" route="r_7" depart="1060" />
    <vehicle id="NS_1061" type="car" route="r_10" depart="1061" color="0,1,0"/>
    <vehicle id="NS_1062" type="truck" route="r_9" depart="1062" color="0,1,0"/>
    <vehicle id="EW_1070" type="car" route="r_5" depart="1070" color= "1,0,0"/>
    <vehicle id="EW_1074" type="car" route="r_3" depart="1074" color= "1,0,0"/>
    <vehicle id="SN_1079" type="car" route="r_2" depart="1079" color="0,0,1"/>
    <vehicle id="NS_1080" type="car" route="r_10" depart="1080" color="0,1,0"/>
    <vehicle id="SN_1081" type="car" route="r_0" depart="1081" color="0,0,1"/>
    <vehicle id="EW_1090" type="car" route="r_5" depart="1090" color= "1,0,0"/>
    <vehicle id="NS_1090" type="car" route="r_11" depart="1090" color="0,1,0"/>
    <vehicle id="SN_1091" type="car" route="r_2" depart="1091" color="0,0,1"/>
    <vehicle id="SN_1095" type="car" route="r_0" depart="1095" color="0,0,1"/>
    <vehicle id="EW_1101" type="car" route="r_4" depart="1101" color= "1,0,0"/>
    <vehicle id="SN_1103" type="car" route="r_2" depart="1103" color="0,0,1"/>
    <vehicle id="WE_1108" type="car" route="r_7" depart="1108" />
    <vehicle id="EW_1109" type="car" route="r_5" depart="1109" color= "1,0,0"/>
    <vehicle id="EW_1110" type="car" route="r_4" depart="1110" color= "1,0,0"/>
    <vehicle id="EW_1111" type="car" route="r_5" depart="1111" color= "1,0,0"/>
    <vehicle id="EW_1112" type="car" route="r_5" depart="1112" color= "1,0,0"/>
    <vehicle id="WE_1117" type="car" route="r_7" depart="1117" />