<?xml version="1.0" encoding="UTF-8"?>

<!-- generated on 2024-05-01 21:24:29 by Eclipse SUMO netedit Version 1.19.0
-->

<routes xmlns:xsi="http://www.w3.org/2001/XMLSchema-instance" xsi:noNamespaceSchemaLocation="http://sumo.dlr.de/xsd/routes_file.xsd">
    <!-- Routes -->
    <route id="r_0" edges="3i 1o"/>
    <route id="r_1" edges="3i 4o"/>
    <route id="r_10" edges="4i 1o"/>
    <route id="r_11" edges="4i 2o"/>
    <route id="r_2" edges="3i 2o"/>
    <route id="r_3" edges="2i 1o"/>
    <route id="r_4" edges="2i 4o"/>
    <route id="r_5" edges="2i 3o"/>
    <route id="r_6" edges="1i 2o"/>
    <route id="r_7" edges="1i 3o"/>
    <route id="r_8" edges="1i 4o"/>
    <route id="r_9" edges="4i 3o"/>
    <!-- Vehicles, persons and containers (sorted by depart) -->
    <!-- <flow id="f_0" begin="0.00" route="r_8" end="3600.00" vehsPerHour="1800"/> -->
    <flow id="f_0" begin="0" end="3600" type="car" departPos="random">
        <routeProbDistribution>
            <route id="r_6" probability="0.3"/>
            <route id="r_7" probability="0.3"/>
            <route id="r_8" probability="0.4"/>
        </routeProbDistribution>
        <departSpeed min="10" max="20"/>

    <!-- <flow id="f_1" begin="0.00" route="r_1" end="3600.00" vehsPerHour="1800"/> -->
    <flow id="f_1" begin="0" end="3600" type="car" departPos="random">
        <routeProbDistribution>
            <route id="r_0" probability="0.3"/>
            <route id="r_1" probability="0.3"/>
            <route id="r_2" probability="0.4"/>
        </routeProbDistribution>
        <departSpeed min="10" max="20"/>

    <!-- <flow id="f_2" begin="0.00" route="r_4" end="3600.00" vehsPerHour="1800"/> -->
    <flow id="f_2" begin="0" end="3600" type="car" departPos="random">
        <routeProbDistribution>
            <route id="r_3" probability="0.3"/>
            <route id="r_4" probability="0.3"/>
            <route id="r_5" probability="0.4"/>
        </routeProbDistribution>
        <departSpeed min="10" max="20"/>
    </flow>
    
    <!-- <flow id="f_3" begin="0.00" route="r_9" end="3600.00" vehsPerHour="1800"/> -->
    <flow id="f_3" begin="0" end="3600" type="car" departPos="random">
        <routeProbDistribution>
            <route id="r_9" probability="0.3"/>
            <route id="r_11" probability="0.3"/>
            <route id="r_10" probability="0.4"/>
        </routeProbDistribution>
        <departSpeed min="10" max="20"/>
    </flow>

</routes>
