<?xml version="1.0" encoding="UTF-8"?>

<!-- generated on 2024-04-10 19:38:49 by Eclipse SUMO netedit Version 1.19.0
<configuration xmlns:xsi="http://www.w3.org/2001/XMLSchema-instance" xsi:noNamespaceSchemaLocation="http://sumo.dlr.de/xsd/neteditConfiguration.xsd">

    <input>
        <sumo-net-file value="/home/poison/RL/Final Project/test4.net.xml"/>
    </input>

    <output>
        <output-file value="/home/poison/RL/Final Project/test4.net.xml"/>
    </output>

    <processing>
        <offset.disable-normalization value="true"/>
    </processing>

    <junctions>
        <no-turnarounds value="true"/>
    </junctions>

    <netedit>
        <new-network value="false"/>
    </netedit>

</configuration>
-->

<net version="1.16" junctionCornerDetail="5" limitTurnSpeed="5.50" xmlns:xsi="http://www.w3.org/2001/XMLSchema-instance" xsi:noNamespaceSchemaLocation="http://sumo.dlr.de/xsd/net_file.xsd">

    <location netOffset="0.00,0.00" convBoundary="-49.84,-46.38,147.88,102.77" origBoundary="10000000000.00,10000000000.00,-10000000000.00,-10000000000.00" projParameter="!"/>

    <edge id=":J1_0" function="internal">
        <lane id=":J1_0_0" index="0" speed="6.51" length="9.03" shape="31.98,43.79 31.63,41.34 30.58,39.59 28.83,38.54 26.38,38.19"/>
        <lane id=":J1_0_1" index="1" speed="7.33" length="11.73" shape="31.98,43.79 31.63,39.94 30.58,37.19 28.83,35.54 26.38,34.99"/>
        <lane id=":J1_0_2" index="2" speed="8.10" length="14.57" shape="31.98,43.79 31.63,38.54 30.58,34.79 28.83,32.54 26.38,31.79"/>
        <lane id=":J1_0_3" index="3" speed="8.83" length="17.50" shape="31.98,43.79 31.63,37.14 30.58,32.39 28.83,29.54 26.38,28.59"/>
    </edge>
    <edge id=":J1_4" function="internal">
        <lane id=":J1_4_0" index="0" speed="13.89" length="28.18" shape="31.98,43.79 32.98,35.61 35.18,30.19 37.38,24.77 38.38,16.59"/>
        <lane id=":J1_4_1" index="1" speed="13.89" length="28.18" shape="35.18,43.79 36.18,35.61 38.38,30.19 40.58,24.77 41.58,16.59"/>
    </edge>

    <edge id="E0" from="J0" to="J1" priority="-1" length="500.00">
        <lane id="E0_0" index="0" speed="13.89" length="500.00" shape="31.98,102.77 31.98,43.79"/>
        <lane id="E0_1" index="1" speed="13.89" length="500.00" shape="35.18,102.77 35.18,43.79"/>
        <lane id="E0_2" index="2" speed="13.89" length="500.00" shape="38.38,102.77 38.38,43.79"/>
        <lane id="E0_3" index="3" speed="13.89" length="500.00" shape="41.58,102.77 41.58,43.79"/>
    </edge>
    <edge id="E1" from="J1" to="J2" priority="-1" spreadType="center" length="500.00">
        <lane id="E1_0" index="0" speed="13.89" length="500.00" shape="53.58,22.19 147.88,22.19"/>
        <lane id="E1_1" index="1" speed="13.89" length="500.00" shape="53.58,25.39 147.88,25.39"/>
        <lane id="E1_2" index="2" speed="13.89" length="500.00" shape="53.58,28.59 147.88,28.59"/>
        <lane id="E1_3" index="3" speed="13.89" length="500.00" shape="53.58,31.79 147.88,31.79"/>
    </edge>
    <edge id="E2" from="J1" to="J3" priority="-1" length="500.00">
        <lane id="E2_0" index="0" speed="13.89" length="500.00" shape="26.38,38.19 -49.84,38.19"/>
        <lane id="E2_1" index="1" speed="13.89" length="500.00" shape="26.38,34.99 -49.84,34.99"/>
        <lane id="E2_2" index="2" speed="13.89" length="500.00" shape="26.38,31.79 -49.84,31.79"/>
        <lane id="E2_3" index="3" speed="13.89" length="500.00" shape="26.38,28.59 -49.84,28.59"/>
    </edge>
    <edge id="E3" from="J1" to="J4" priority="-1" spreadType="center" length="500.00">
        <lane id="E3_0" index="0" speed="13.89" length="500.00" shape="38.38,16.59 38.38,-46.38"/>
        <lane id="E3_1" index="1" speed="13.89" length="500.00" shape="41.58,16.59 41.58,-46.38"/>
        <lane id="E3_2" index="2" speed="13.89" length="500.00" shape="44.78,16.59 44.78,-46.38"/>
        <lane id="E3_3" index="3" speed="13.89" length="500.00" shape="47.98,16.59 47.98,-46.38"/>
    </edge>

    <junction id="J0" type="dead_end" x="43.18" y="102.77" incLanes="" intLanes="" shape="43.18,102.77 30.38,102.77"/>
    <junction id="J1" type="priority" x="43.18" y="26.99" incLanes="E0_0 E0_1 E0_2 E0_3" intLanes=":J1_0_0 :J1_0_1 :J1_0_2 :J1_0_3 :J1_4_0 :J1_4_1" shape="30.38,43.79 43.18,43.79 43.47,40.61 44.34,38.01 45.78,35.99 47.80,34.54 50.40,33.67 53.58,33.39 53.58,20.59 51.36,20.14 50.58,19.59 50.02,18.81 49.69,17.81 49.58,16.59 36.78,16.59 36.49,19.76 35.62,22.36 34.18,24.39 32.16,25.83 29.56,26.70 26.38,26.99 26.38,39.79 28.60,40.23 29.38,40.79 29.94,41.56 30.27,42.56">
        <request index="0" response="000000" foes="000000" cont="0"/>
        <request index="1" response="000000" foes="000000" cont="0"/>
        <request index="2" response="000000" foes="000000" cont="0"/>
        <request index="3" response="000000" foes="000000" cont="0"/>
        <request index="4" response="000000" foes="000000" cont="0"/>
        <request index="5" response="000000" foes="000000" cont="0"/>
    </junction>
    <junction id="J2" type="dead_end" x="147.88" y="26.99" incLanes="E1_0 E1_1 E1_2 E1_3" intLanes="" shape="147.88,20.59 147.88,33.39"/>
    <junction id="J3" type="dead_end" x="-49.84" y="26.99" incLanes="E2_0 E2_1 E2_2 E2_3" intLanes="" shape="-49.84,39.79 -49.84,26.99"/>
    <junction id="J4" type="dead_end" x="43.18" y="-46.38" incLanes="E3_0 E3_1 E3_2 E3_3" intLanes="" shape="36.78,-46.38 49.58,-46.38"/>

    <connection from="E0" to="E2" fromLane="0" toLane="0" via=":J1_0_0" dir="r" state="M"/>
    <connection from="E0" to="E2" fromLane="0" toLane="1" via=":J1_0_1" dir="r" state="M"/>
    <connection from="E0" to="E2" fromLane="0" toLane="2" via=":J1_0_2" dir="r" state="M"/>
    <connection from="E0" to="E2" fromLane="0" toLane="3" via=":J1_0_3" dir="r" state="M"/>
    <connection from="E0" to="E3" fromLane="0" toLane="0" via=":J1_4_0" dir="s" state="M"/>
    <connection from="E0" to="E3" fromLane="1" toLane="1" via=":J1_4_1" dir="s" state="M"/>

    <connection from=":J1_0" to="E2" fromLane="0" toLane="0" dir="r" state="M"/>
    <connection from=":J1_0" to="E2" fromLane="1" toLane="1" dir="r" state="M"/>
    <connection from=":J1_0" to="E2" fromLane="2" toLane="2" dir="r" state="M"/>
    <connection from=":J1_0" to="E2" fromLane="3" toLane="3" dir="r" state="M"/>
    <connection from=":J1_4" to="E3" fromLane="0" toLane="0" dir="s" state="M"/>
    <connection from=":J1_4" to="E3" fromLane="1" toLane="1" dir="s" state="M"/>

</net>
