<?xml version="1.0" encoding="UTF-8"?>

<!-- generated on 2024-05-01 21:12:39 by Eclipse SUMO netedit Version 1.19.0
-->

<routes xmlns:xsi="http://www.w3.org/2001/XMLSchema-instance" xsi:noNamespaceSchemaLocation="http://sumo.dlr.de/xsd/routes_file.xsd">
    <!-- Routes -->
    <route id="r_0" edges="3i 1o"/>
    <route id="r_1" edges="3i 4o"/>
    <route id="r_10" edges="2i 3o"/>
    <route id="r_11" edges="2i 4o"/>
    <route id="r_2" edges="3i 2o"/>
    <route id="r_3" edges="4i 3o"/>
    <route id="r_4" edges="4i 2o"/>
    <route id="r_5" edges="4i 1o"/>
    <route id="r_6" edges="1i 2o"/>
    <route id="r_7" edges="1i 4o"/>
    <route id="r_8" edges="1i 3o"/>
    <route id="r_9" edges="2i 1o"/>
    <!-- Vehicles, persons and containers (sorted by depart) -->
    <flow id="f_0" begin="0.00" fromJunction="0" toJunction="0" end="3600.00" vehsPerHour="1800"/>
</routes>
