<routes>
        <vType id="car" vClass="passenger" length="4" maxSpeed="25.0" accel="2.6" decel="4.5"/>
        <vType id="truck" vClass="truck" length="10" maxSpeed="20.0" accel="1.2" decel="2.5"/>

        <route id="r_0" edges="3i 1o"/>
        <route id="r_1" edges="3i 4o"/>
        <route id="r_10" edges="2i 3o"/>
        <route id="r_11" edges="2i 4o"/>
        <route id="r_2" edges="3i 2o"/>
        <route id="r_3" edges="4i 3o"/>
        <route id="r_4" edges="4i 2o"/>
        <route id="r_5" edges="4i 1o"/>
        <route id="r_6" edges="1i 2o"/>
        <route id="r_7" edges="1i 4o"/>
        <route id="r_8" edges="1i 3o"/>
        <route id="r_9" edges="2i 1o"/>
    <vehicle id="WE_1" type="car" route="r_8" depart="1" />
    <vehicle id="SN_1" type="car" route="r_0" depart="1" color="0,0,1"/>
    <vehicle id="EW_2" type="car" route="r_5" depart="2" color= "1,0,0"/>
    <vehicle id="SN_4" type="car" route="r_2" depart="4" color="0,0,1"/>
    <vehicle id="WE_11" type="car" route="r_6" depart="11" />
    <vehicle id="EW_13" type="car" route="r_4" depart="13" color= "1,0,0"/>
    <vehicle id="WE_18" type="car" route="r_7" depart="18" />
    <vehicle id="WE_20" type="car" route="r_8" depart="20" />
    <vehicle id="SN_20" type="car" route="r_0" depart="20" color="0,0,1"/>
    <vehicle id="WE_21" type="car" route="r_7" depart="21" />
    <vehicle id="NS_25" type="car" route="r_9" depart="25" color="0,1,0"/>
    <vehicle id="EW_27" type="car" route="r_4" depart="27" color= "1,0,0"/>
    <vehicle id="WE_28" type="car" route="r_6" depart="28" />
    <vehicle id="SN_32" type="car" route="r_2" depart="32" color="0,0,1"/>
    <vehicle id="NS_35" type="car" route="r_10" depart="35" color="0,1,0"/>
    <vehicle id="WE_38" type="car" route="r_8" depart="38" />
    <vehicle id="SN_39" type="car" route="r_0" depart="39" color="0,0,1"/>
    <vehicle id="WE_41" type="car" route="r_6" depart="41" />
    <vehicle id="NS_42" type="truck" route="r_10" depart="42" color="0,1,0"/>
    <vehicle id="NS_43" type="car" route="r_9" depart="43" color="0,1,0"/>
    <vehicle id="SN_50" type="car" route="r_1" depart="50" color="0,0,1"/>
    <vehicle id="NS_51" type="car" route="r_9" depart="51" color="0,1,0"/>
    <vehicle id="EW_52" type="car" route="r_3" depart="52" color= "1,0,0"/>
    <vehicle id="SN_52" type="car" route="r_1" depart="52" color="0,0,1"/>
    <vehicle id="WE_53" type="car" route="r_6" depart="53" />
    <vehicle id="EW_56" type="car" route="r_5" depart="56" color= "1,0,0"/>
    <vehicle id="NS_57" type="car" route="r_11" depart="57" color="0,1,0"/>
    <vehicle id="WE_60" type="car" route="r_8" depart="60" />
    <vehicle id="EW_61" type="car" route="r_3" depart="61" color= "1,0,0"/>
    <vehicle id="NS_62" type="car" route="r_10" depart="62" color="0,1,0"/>
    <vehicle id="SN_67" type="car" route="r_1" depart="67" color="0,0,1"/>
    <vehicle id="SN_70" type="car" route="r_1" depart="70" color="0,0,1"/>
    <vehicle id="EW_71" type="car" route="r_5" depart="71" color= "1,0,0"/>
    <vehicle id="WE_72" type="car" route="r_8" depart="72" />
    <vehicle id="SN_72" type="car" route="r_1" depart="72" color="0,0,1"/>
    <vehicle id="NS_78" type="car" route="r_10" depart="78" color="0,1,0"/>
    <vehicle id="EW_82" type="car" route="r_4" depart="82" color= "1,0,0"/>
    <vehicle id="WE_93" type="car" route="r_7" depart="93" />
    <vehicle id="EW_95" type="car" route="r_4" depart="95" color= "1,0,0"/>
    <vehicle id="WE_96" type="truck" route="r_7" depart="96" />
    <vehicle id="NS_98" type="car" route="r_10" depart="98" color="0,1,0"/>
    <vehicle id="WE_103" type="car" route="r_7" depart="103" />
    <vehicle id="NS_103" type="car" route="r_9" depart="103" color="0,1,0"/>
    <vehicle id="NS_109" type="car" route="r_10" depart="109" color="0,1,0"/>
    <vehicle id="SN_119" type="car" route="r_2" depart="119" color="0,0,1"/>
    <vehicle id="EW_121" type="car" route="r_3" depart="121" color= "1,0,0"/>
    <vehicle id="NS_122" type="car" route="r_10" depart="122" color="0,1,0"/>
    <vehicle id="NS_123" type="truck" route="r_9" depart="123" color="0,1,0"/>
    <vehicle id="EW_125" type="car" route="r_4" depart="125" color= "1,0,0"/>
    <vehicle id="EW_131" type="car" route="r_4" depart="131" color= "1,0,0"/>
    <vehicle id="SN_141" type="truck" route="r_1" depart="141" color="0,0,1"/>
    <vehicle id="EW_142" type="car" route="r_5" depart="142" color= "1,0,0"/>
    <vehicle id="WE_146" type="car" route="r_8" depart="146" />
    <vehicle id="EW_147" type="car" route="r_5" depart="147" color= "1,0,0"/>
    <vehicle id="WE_150" type="truck" route="r_7" depart="150" />
    <vehicle id="SN_150" type="car" route="r_1" depart="150" color="0,0,1"/>
    <vehicle id="SN_157" type="car" route="r_1" depart="157" color="0,0,1"/>
    <vehicle id="NS_158" type="car" route="r_11" depart="158" color="0,1,0"/>
    <vehicle id="EW_161" type="car" route="r_5" depart="161" color= "1,0,0"/>
    <vehicle id="WE_164" type="car" route="r_7" depart="164" />
    <vehicle id="EW_168" type="truck" route="r_4" depart="168" color= "1,0,0"/>
    <vehicle id="EW_171" type="car" route="r_5" depart="171" color= "1,0,0"/>
    <vehicle id="SN_171" type="car" route="r_0" depart="171" color="0,0,1"/>
    <vehicle id="EW_172" type="car" route="r_5" depart="172" color= "1,0,0"/>
    <vehicle id="EW_174" type="car" route="r_3" depart="174" color= "1,0,0"/>
    <vehicle id="NS_175" type="car" route="r_10" depart="175" color="0,1,0"/>
    <vehicle id="NS_178" type="car" route="r_11" depart="178" color="0,1,0"/>
    <vehicle id="EW_180" type="car" route="r_5" depart="180" color= "1,0,0"/>
    <vehicle id="SN_185" type="car" route="r_1" depart="185" color="0,0,1"/>
    <vehicle id="NS_187" type="car" route="r_11" depart="187" color="0,1,0"/>
    <vehicle id="WE_193" type="car" route="r_7" depart="193" />
    <vehicle id="EW_193" type="car" route="r_3" depart="193" color= "1,0,0"/>
    <vehicle id="EW_194" type="car" route="r_5" depart="194" color= "1,0,0"/>
    <vehicle id="WE_197" type="truck" route="r_6" depart="197" />
    <vehicle id="EW_201" type="car" route="r_4" depart="201" color= "1,0,0"/>
    <vehicle id="SN_201" type="car" route="r_2" depart="201" color="0,0,1"/>
    <vehicle id="WE_202" type="car" route="r_8" depart="202" />
    <vehicle id="SN_203" type="car" route="r_1" depart="203" color="0,0,1"/>
    <vehicle id="EW_204" type="car" route="r_5" depart="204" color= "1,0,0"/>
    <vehicle id="NS_210" type="car" route="r_10" depart="210" color="0,1,0"/>
    <vehicle id="WE_212" type="car" route="r_6" depart="212" />
    <vehicle id="WE_215" type="car" route="r_6" depart="215" />
    <vehicle id="EW_217" type="car" route="r_3" depart="217" color= "1,0,0"/>
    <vehicle id="NS_218" type="car" route="r_11" depart="218" color="0,1,0"/>
    <vehicle id="EW_219" type="car" route="r_3" depart="219" color= "1,0,0"/>
    <vehicle id="SN_221" type="car" route="r_1" depart="221" color="0,0,1"/>
    <vehicle id="EW_224" type="car" route="r_5" depart="224" color= "1,0,0"/>
    <vehicle id="SN_225" type="car" route="r_2" depart="225" color="0,0,1"/>
    <vehicle id="WE_227" type="car" route="r_6" depart="227" />
    <vehicle id="NS_236" type="car" route="r_11" depart="236" color="0,1,0"/>
    <vehicle id="NS_238" type="car" route="r_9" depart="238" color="0,1,0"/>
    <vehicle id="EW_247" type="car" route="r_4" depart="247" color= "1,0,0"/>
    <vehicle id="NS_252" type="truck" route="r_9" depart="252" color="0,1,0"/>
    <vehicle id="NS_255" type="car" route="r_11" depart="255" color="0,1,0"/>
    <vehicle id="SN_256" type="car" route="r_0" depart="256" color="0,0,1"/>
    <vehicle id="EW_257" type="car" route="r_5" depart="257" color= "1,0,0"/>
    <vehicle id="EW_260" type="car" route="r_4" depart="260" color= "1,0,0"/>
    <vehicle id="NS_260" type="car" route="r_11" depart="260" color="0,1,0"/>
    <vehicle id="NS_263" type="car" route="r_10" depart="263" color="0,1,0"/>
    <vehicle id="NS_264" type="car" route="r_10" depart="264" color="0,1,0"/>
    <vehicle id="NS_267" type="truck" route="r_10" depart="267" color="0,1,0"/>
    <vehicle id="NS_275" type="car" route="r_9" depart="275" color="0,1,0"/>
    <vehicle id="NS_278" type="car" route="r_10" depart="278" color="0,1,0"/>
    <vehicle id="SN_284" type="car" route="r_0" depart="284" color="0,0,1"/>
    <vehicle id="NS_285" type="car" route="r_10" depart="285" color="0,1,0"/>
    <vehicle id="NS_286" type="car" route="r_11" depart="286" color="0,1,0"/>
    <vehicle id="NS_288" type="car" route="r_10" depart="288" color="0,1,0"/>
    <vehicle id="SN_290" type="car" route="r_1" depart="290" color="0,0,1"/>
    <vehicle id="WE_293" type="car" route="r_8" depart="293" />
    <vehicle id="WE_296" type="car" route="r_6" depart="296" />
    <vehicle id="WE_299" type="car" route="r_8" depart="299" />
    <vehicle id="SN_299" type="car" route="r_2" depart="299" color="0,0,1"/>
    <vehicle id="WE_302" type="car" route="r_8" depart="302" />
    <vehicle id="EW_306" type="car" route="r_3" depart="306" color= "1,0,0"/>
    <vehicle id="NS_307" type="car" route="r_11" depart="307" color="0,1,0"/>
    <vehicle id="EW_311" type="car" route="r_3" depart="311" color= "1,0,0"/>
    <vehicle id="SN_318" type="car" route="r_1" depart="318" color="0,0,1"/>
    <vehicle id="EW_320" type="car" route="r_4" depart="320" color= "1,0,0"/>
    <vehicle id="NS_320" type="car" route="r_11" depart="320" color="0,1,0"/>
    <vehicle id="EW_321" type="car" route="r_5" depart="321" color= "1,0,0"/>
    <vehicle id="NS_325" type="car" route="r_10" depart="325" color="0,1,0"/>
    <vehicle id="NS_333" type="truck" route="r_9" depart="333" color="0,1,0"/>
    <vehicle id="SN_333" type="car" route="r_2" depart="333" color="0,0,1"/>
    <vehicle id="EW_337" type="car" route="r_5" depart="337" color= "1,0,0"/>
    <vehicle id="WE_340" type="car" route="r_7" depart="340" />
    <vehicle id="EW_340" type="car" route="r_5" depart="340" color= "1,0,0"/>
    <vehicle id="EW_341" type="car" route="r_3" depart="341" color= "1,0,0"/>
    <vehicle id="NS_345" type="car" route="r_10" depart="345" color="0,1,0"/>
    <vehicle id="WE_346" type="car" route="r_7" depart="346" />
    <vehicle id="WE_349" type="car" route="r_8" depart="349" />
    <vehicle id="WE_356" type="car" route="r_8" depart="356" />
    <vehicle id="EW_356" type="car" route="r_3" depart="356" color= "1,0,0"/>
    <vehicle id="SN_356" type="car" route="r_1" depart="356" color="0,0,1"/>
    <vehicle id="SN_360" type="truck" route="r_0" depart="360" color="0,0,1"/>
    <vehicle id="SN_361" type="car" route="r_2" depart="361" color="0,0,1"/>
    <vehicle id="NS_371" type="truck" route="r_11" depart="371" color="0,1,0"/>
    <vehicle id="NS_376" type="car" route="r_11" depart="376" color="0,1,0"/>
    <vehicle id="WE_378" type="car" route="r_7" depart="378" />
    <vehicle id="EW_380" type="car" route="r_4" depart="380" color= "1,0,0"/>
    <vehicle id="WE_381" type="truck" route="r_7" depart="381" />
    <vehicle id="NS_382" type="car" route="r_9" depart="382" color="0,1,0"/>
    <vehicle id="EW_385" type="car" route="r_4" depart="385" color= "1,0,0"/>
    <vehicle id="NS_388" type="car" route="r_11" depart="388" color="0,1,0"/>
    <vehicle id="SN_392" type="truck" route="r_1" depart="392" color="0,0,1"/>
    <vehicle id="EW_395" type="car" route="r_3" depart="395" color= "1,0,0"/>
    <vehicle id="SN_395" type="car" route="r_1" depart="395" color="0,0,1"/>
    <vehicle id="WE_401" type="car" route="r_8" depart="401" />
    <vehicle id="SN_401" type="car" route="r_0" depart="401" color="0,0,1"/>
    <vehicle id="NS_402" type="car" route="r_9" depart="402" color="0,1,0"/>
    <vehicle id="SN_402" type="car" route="r_0" depart="402" color="0,0,1"/>
    <vehicle id="NS_407" type="car" route="r_11" depart="407" color="0,1,0"/>
    <vehicle id="WE_412" type="car" route="r_6" depart="412" />
    <vehicle id="SN_416" type="car" route="r_2" depart="416" color="0,0,1"/>
    <vehicle id="SN_419" type="car" route="r_1" depart="419" color="0,0,1"/>
    <vehicle id="NS_422" type="car" route="r_9" depart="422" color="0,1,0"/>
    <vehicle id="WE_425" type="car" route="r_8" depart="425" />
    <vehicle id="EW_426" type="car" route="r_3" depart="426" color= "1,0,0"/>
    <vehicle id="SN_426" type="car" route="r_2" depart="426" color="0,0,1"/>
    <vehicle id="WE_428" type="car" route="r_6" depart="428" />
    <vehicle id="SN_432" type="car" route="r_1" depart="432" color="0,0,1"/>
    <vehicle id="WE_437" type="car" route="r_6" depart="437" />
    <vehicle id="NS_437" type="car" route="r_10" depart="437" color="0,1,0"/>
    <vehicle id="WE_443" type="car" route="r_8" depart="443" />
    <vehicle id="NS_443" type="car" route="r_9" depart="443" color="0,1,0"/>
    <vehicle id="SN_444" type="car" route="r_0" depart="444" color="0,0,1"/>
    <vehicle id="WE_445" type="car" route="r_8" depart="445" />
    <vehicle id="SN_450" type="car" route="r_1" depart="450" color="0,0,1"/>
    <vehicle id="WE_453" type="car" route="r_7" depart="453" />
    <vehicle id="SN_455" type="car" route="r_1" depart="455" color="0,0,1"/>
    <vehicle id="NS_456" type="car" route="r_9" depart="456" color="0,1,0"/>
    <vehicle id="NS_457" type="car" route="r_11" depart="457" color="0,1,0"/>
    <vehicle id="NS_462" type="truck" route="r_11" depart="462" color="0,1,0"/>
    <vehicle id="EW_469" type="car" route="r_3" depart="469" color= "1,0,0"/>
    <vehicle id="WE_471" type="car" route="r_6" depart="471" />
    <vehicle id="NS_472" type="car" route="r_10" depart="472" color="0,1,0"/>
    <vehicle id="SN_473" type="car" route="r_0" depart="473" color="0,0,1"/>
    <vehicle id="WE_474" type="car" route="r_8" depart="474" />
    <vehicle id="WE_475" type="truck" route="r_7" depart="475" />
    <vehicle id="NS_476" type="car" route="r_10" depart="476" color="0,1,0"/>
    <vehicle id="NS_480" type="car" route="r_9" depart="480" color="0,1,0"/>
    <vehicle id="SN_487" type="car" route="r_1" depart="487" color="0,0,1"/>
    <vehicle id="EW_489" type="car" route="r_3" depart="489" color= "1,0,0"/>
    <vehicle id="SN_491" type="truck" route="r_0" depart="491" color="0,0,1"/>
    <vehicle id="EW_493" type="car" route="r_5" depart="493" color= "1,0,0"/>
    <vehicle id="EW_495" type="car" route="r_4" depart="495" color= "1,0,0"/>
    <vehicle id="NS_496" type="car" route="r_9" depart="496" color="0,1,0"/>
    <vehicle id="NS_498" type="car" route="r_9" depart="498" color="0,1,0"/>
    <vehicle id="NS_499" type="car" route="r_10" depart="499" color="0,1,0"/>
    <vehicle id="WE_502" type="car" route="r_8" depart="502" />
    <vehicle id="SN_507" type="truck" route="r_2" depart="507" color="0,0,1"/>
    <vehicle id="EW_508" type="car" route="r_3" depart="508" color= "1,0,0"/>
    <vehicle id="NS_508" type="car" route="r_11" depart="508" color="0,1,0"/>
    <vehicle id="WE_511" type="car" route="r_8" depart="511" />
    <vehicle id="SN_511" type="car" route="r_2" depart="511" color="0,0,1"/>
    <vehicle id="WE_512" type="car" route="r_8" depart="512" />
    <vehicle id="NS_513" type="car" route="r_9" depart="513" color="0,1,0"/>
    <vehicle id="NS_514" type="car" route="r_10" depart="514" color="0,1,0"/>
    <vehicle id="SN_516" type="car" route="r_0" depart="516" color="0,0,1"/>
    <vehicle id="WE_521" type="car" route="r_6" depart="521" />
    <vehicle id="SN_522" type="car" route="r_0" depart="522" color="0,0,1"/>
    <vehicle id="NS_525" type="truck" route="r_9" depart="525" color="0,1,0"/>
    <vehicle id="WE_532" type="car" route="r_6" depart="532" />
    <vehicle id="NS_534" type="car" route="r_9" depart="534" color="0,1,0"/>
    <vehicle id="EW_539" type="car" route="r_5" depart="539" color= "1,0,0"/>
    <vehicle id="NS_544" type="car" route="r_9" depart="544" color="0,1,0"/>
    <vehicle id="NS_545" type="car" route="r_10" depart="545" color="0,1,0"/>
    <vehicle id="EW_551" type="car" route="r_4" depart="551" color= "1,0,0"/>
    <vehicle id="NS_552" type="car" route="r_11" depart="552" color="0,1,0"/>
    <vehicle id="WE_556" type="car" route="r_7" depart="556" />
    <vehicle id="WE_560" type="car" route="r_6" depart="560" />
    <vehicle id="SN_562" type="car" route="r_1" depart="562" color="0,0,1"/>
    <vehicle id="SN_568" type="truck" route="r_1" depart="568" color="0,0,1"/>
    <vehicle id="SN_569" type="car" route="r_1" depart="569" color="0,0,1"/>
    <vehicle id="WE_570" type="car" route="r_6" depart="570" />
    <vehicle id="WE_571" type="car" route="r_8" depart="571" />
    <vehicle id="SN_571" type="car" route="r_1" depart="571" color="0,0,1"/>
    <vehicle id="NS_573" type="car" route="r_10" depart="573" color="0,1,0"/>
    <vehicle id="SN_573" type="car" route="r_1" depart="573" color="0,0,1"/>
    <vehicle id="WE_574" type="car" route="r_6" depart="574" />
    <vehicle id="SN_574" type="car" route="r_1" depart="574" color="0,0,1"/>
    <vehicle id="NS_578" type="truck" route="r_10" depart="578" color="0,1,0"/>
    <vehicle id="EW_579" type="car" route="r_5" depart="579" color= "1,0,0"/>
    <vehicle id="WE_580" type="car" route="r_8" depart="580" />
    <vehicle id="SN_580" type="car" route="r_0" depart="580" color="0,0,1"/>
    <vehicle id="SN_585" type="car" route="r_0" depart="585" color="0,0,1"/>
    <vehicle id="SN_587" type="car" route="r_0" depart="587" color="0,0,1"/>
    <vehicle id="WE_590" type="car" route="r_8" depart="590" />
    <vehicle id="EW_591" type="car" route="r_3" depart="591" color= "1,0,0"/>
    <vehicle id="NS_591" type="car" route="r_10" depart="591" color="0,1,0"/>
    <vehicle id="SN_591" type="car" route="r_0" depart="591" color="0,0,1"/>
    <vehicle id="SN_593" type="truck" route="r_1" depart="593" color="0,0,1"/>
    <vehicle id="NS_602" type="car" route="r_10" depart="602" color="0,1,0"/>
    <vehicle id="EW_603" type="car" route="r_4" depart="603" color= "1,0,0"/>
    <vehicle id="EW_604" type="car" route="r_4" depart="604" color= "1,0,0"/>
    <vehicle id="NS_605" type="car" route="r_9" depart="605" color="0,1,0"/>
    <vehicle id="EW_610" type="car" route="r_5" depart="610" color= "1,0,0"/>
    <vehicle id="EW_613" type="car" route="r_5" depart="613" color= "1,0,0"/>
    <vehicle id="SN_619" type="car" route="r_2" depart="619" color="0,0,1"/>
    <vehicle id="EW_621" type="car" route="r_3" depart="621" color= "1,0,0"/>
    <vehicle id="EW_624" type="car" route="r_5" depart="624" color= "1,0,0"/>
    <vehicle id="WE_640" type="car" route="r_8" depart="640" />
    <vehicle id="EW_640" type="car" route="r_4" depart="640" color= "1,0,0"/>
    <vehicle id="EW_645" type="car" route="r_3" depart="645" color= "1,0,0"/>
    <vehicle id="WE_654" type="car" route="r_7" depart="654" />
    <vehicle id="NS_656" type="car" route="r_11" depart="656" color="0,1,0"/>
    <vehicle id="WE_658" type="car" route="r_6" depart="658" />
    <vehicle id="NS_662" type="car" route="r_11" depart="662" color="0,1,0"/>
    <vehicle id="WE_665" type="car" route="r_7" depart="665" />
    <vehicle id="NS_665" type="car" route="r_9" depart="665" color="0,1,0"/>
    <vehicle id="EW_669" type="truck" route="r_4" depart="669" color= "1,0,0"/>
    <vehicle id="SN_670" type="car" route="r_2" depart="670" color="0,0,1"/>
    <vehicle id="EW_675" type="car" route="r_3" depart="675" color= "1,0,0"/>
    <vehicle id="EW_677" type="car" route="r_4" depart="677" color= "1,0,0"/>
    <vehicle id="WE_680" type="truck" route="r_7" depart="680" />
    <vehicle id="EW_681" type="truck" route="r_4" depart="681" color= "1,0,0"/>
    <vehicle id="NS_683" type="car" route="r_10" depart="683" color="0,1,0"/>
    <vehicle id="WE_687" type="car" route="r_8" depart="687" />
    <vehicle id="SN_693" type="truck" route="r_0" depart="693" color="0,0,1"/>
    <vehicle id="WE_697" type="car" route="r_7" depart="697" />
    <vehicle id="SN_699" type="car" route="r_1" depart="699" color="0,0,1"/>
    <vehicle id="NS_700" type="car" route="r_11" depart="700" color="0,1,0"/>
    <vehicle id="EW_706" type="car" route="r_3" depart="706" color= "1,0,0"/>
    <vehicle id="WE_708" type="car" route="r_6" depart="708" />
    <vehicle id="SN_710" type="car" route="r_0" depart="710" color="0,0,1"/>
    <vehicle id="SN_713" type="car" route="r_0" depart="713" color="0,0,1"/>
    <vehicle id="EW_714" type="car" route="r_3" depart="714" color= "1,0,0"/>
    <vehicle id="NS_716" type="car" route="r_9" depart="716" color="0,1,0"/>
    <vehicle id="WE_718" type="car" route="r_6" depart="718" />
    <vehicle id="EW_718" type="car" route="r_4" depart="718" color= "1,0,0"/>
    <vehicle id="WE_720" type="car" route="r_8" depart="720" />
    <vehicle id="EW_721" type="car" route="r_3" depart="721" color= "1,0,0"/>
    <vehicle id="NS_722" type="car" route="r_11" depart="722" color="0,1,0"/>
    <vehicle id="EW_724" type="car" route="r_5" depart="724" color= "1,0,0"/>
    <vehicle id="WE_725" type="car" route="r_6" depart="725" />
    <vehicle id="NS_725" type="car" route="r_10" depart="725" color="0,1,0"/>
    <vehicle id="NS_727" type="car" route="r_9" depart="727" color="0,1,0"/>
    <vehicle id="NS_730" type="car" route="r_11" depart="730" color="0,1,0"/>
    <vehicle id="EW_733" type="car" route="r_5" depart="733" color= "1,0,0"/>
    <vehicle id="NS_733" type="car" route="r_11" depart="733" color="0,1,0"/>
    <vehicle id="SN_735" type="car" route="r_0" depart="735" color="0,0,1"/>
    <vehicle id="NS_736" type="car" route="r_10" depart="736" color="0,1,0"/>
    <vehicle id="WE_737" type="car" route="r_7" depart="737" />
    <vehicle id="NS_741" type="car" route="r_11" depart="741" color="0,1,0"/>
    <vehicle id="SN_742" type="car" route="r_0" depart="742" color="0,0,1"/>
    <vehicle id="SN_743" type="car" route="r_2" depart="743" color="0,0,1"/>
    <vehicle id="SN_748" type="car" route="r_1" depart="748" color="0,0,1"/>
    <vehicle id="EW_753" type="car" route="r_4" depart="753" color= "1,0,0"/>
    <vehicle id="NS_754" type="car" route="r_11" depart="754" color="0,1,0"/>
    <vehicle id="EW_755" type="car" route="r_5" depart="755" color= "1,0,0"/>
    <vehicle id="EW_760" type="car" route="r_5" depart="760" color= "1,0,0"/>
    <vehicle id="EW_766" type="car" route="r_5" depart="766" color= "1,0,0"/>
    <vehicle id="SN_769" type="car" route="r_2" depart="769" color="0,0,1"/>
    <vehicle id="WE_771" type="car" route="r_8" depart="771" />
    <vehicle id="NS_774" type="car" route="r_10" depart="774" color="0,1,0"/>
    <vehicle id="WE_778" type="car" route="r_6" depart="778" />
    <vehicle id="EW_782" type="car" route="r_4" depart="782" color= "1,0,0"/>
    <vehicle id="EW_784" type="car" route="r_5" depart="784" color= "1,0,0"/>
    <vehicle id="SN_789" type="car" route="r_0" depart="789" color="0,0,1"/>
    <vehicle id="SN_790" type="car" route="r_2" depart="790" color="0,0,1"/>
    <vehicle id="WE_792" type="car" route="r_7" depart="792" />
    <vehicle id="EW_795" type="car" route="r_5" depart="795" color= "1,0,0"/>
    <vehicle id="NS_799" type="car" route="r_11" depart="799" color="0,1,0"/>
    <vehicle id="SN_803" type="car" route="r_1" depart="803" color="0,0,1"/>
    <vehicle id="NS_804" type="car" route="r_10" depart="804" color="0,1,0"/>
    <vehicle id="WE_805" type="car" route="r_6" depart="805" />
    <vehicle id="NS_805" type="car" route="r_9" depart="805" color="0,1,0"/>
    <vehicle id="WE_806" type="car" route="r_8" depart="806" />
    <vehicle id="SN_806" type="car" route="r_2" depart="806" color="0,0,1"/>
    <vehicle id="SN_816" type="car" route="r_0" depart="816" color="0,0,1"/>
    <vehicle id="EW_824" type="car" route="r_3" depart="824" color= "1,0,0"/>
    <vehicle id="SN_824" type="car" route="r_2" depart="824" color="0,0,1"/>
    <vehicle id="SN_827" type="car" route="r_1" depart="827" color="0,0,1"/>
    <vehicle id="NS_831" type="truck" route="r_11" depart="831" color="0,1,0"/>
    <vehicle id="WE_832" type="car" route="r_8" depart="832" />
    <vehicle id="EW_832" type="car" route="r_5" depart="832" color= "1,0,0"/>
    <vehicle id="SN_832" type="car" route="r_1" depart="832" color="0,0,1"/>
    <vehicle id="SN_836" type="car" route="r_0" depart="836" color="0,0,1"/>
    <vehicle id="SN_837" type="car" route="r_2" depart="837" color="0,0,1"/>
    <vehicle id="EW_838" type="car" route="r_4" depart="838" color= "1,0,0"/>
    <vehicle id="WE_841" type="truck" route="r_7" depart="841" />
    <vehicle id="NS_844" type="truck" route="r_9" depart="844" color="0,1,0"/>
    <vehicle id="NS_848" type="car" route="r_11" depart="848" color="0,1,0"/>
    <vehicle id="SN_854" type="car" route="r_1" depart="854" color="0,0,1"/>
    <vehicle id="SN_855" type="car" route="r_2" depart="855" color="0,0,1"/>
    <vehicle id="EW_856" type="car" route="r_4" depart="856" color= "1,0,0"/>
    <vehicle id="WE_858" type="car" route="r_6" depart="858" />
    <vehicle id="NS_872" type="car" route="r_9" depart="872" color="0,1,0"/>
    <vehicle id="WE_878" type="car" route="r_7" depart="878" />
    <vehicle id="WE_879" type="car" route="r_8" depart="879" />
    <vehicle id="WE_882" type="car" route="r_7" depart="882" />
    <vehicle id="NS_887" type="car" route="r_10" depart="887" color="0,1,0"/>
    <vehicle id="EW_896" type="car" route="r_5" depart="896" color= "1,0,0"/>
    <vehicle id="WE_899" type="car" route="r_8" depart="899" />
    <vehicle id="EW_899" type="truck" route="r_3" depart="899" color= "1,0,0"/>
    <vehicle id="WE_910" type="car" route="r_6" depart="910" />
    <vehicle id="WE_912" type="car" route="r_7" depart="912" />
    <vehicle id="EW_917" type="car" route="r_3" depart="917" color= "1,0,0"/>
    <vehicle id="WE_927" type="car" route="r_6" depart="927" />
    <vehicle id="EW_931" type="car" route="r_4" depart="931" color= "1,0,0"/>
    <vehicle id="NS_933" type="car" route="r_10" depart="933" color="0,1,0"/>
    <vehicle id="EW_934" type="car" route="r_3" depart="934" color= "1,0,0"/>
    <vehicle id="NS_936" type="car" route="r_9" depart="936" color="0,1,0"/>
    <vehicle id="NS_941" type="car" route="r_11" depart="941" color="0,1,0"/>
    <vehicle id="SN_944" type="car" route="r_1" depart="944" color="0,0,1"/>
    <vehicle id="WE_945" type="car" route="r_7" depart="945" />
    <vehicle id="NS_946" type="car" route="r_10" depart="946" color="0,1,0"/>
    <vehicle id="WE_950" type="car" route="r_8" depart="950" />
    <vehicle id="EW_951" type="truck" route="r_4" depart="951" color= "1,0,0"/>
    <vehicle id="WE_953" type="car" route="r_6" depart="953" />
    <vehicle id="SN_953" type="car" route="r_0" depart="953" color="0,0,1"/>
    <vehicle id="EW_957" type="car" route="r_4" depart="957" color= "1,0,0"/>
    <vehicle id="SN_958" type="car" route="r_0" depart="958" color="0,0,1"/>
    <vehicle id="EW_963" type="car" route="r_5" depart="963" color= "1,0,0"/>
    <vehicle id="EW_970" type="car" route="r_3" depart="970" color= "1,0,0"/>
    <vehicle id="EW_971" type="car" route="r_3" depart="971" color= "1,0,0"/>
    <vehicle id="WE_977" type="car" route="r_8" depart="977" />
    <vehicle id="WE_979" type="car" route="r_7" depart="979" />
    <vehicle id="SN_985" type="car" route="r_1" depart="985" color="0,0,1"/>
    <vehicle id="EW_986" type="car" route="r_3" depart="986" color= "1,0,0"/>
    <vehicle id="EW_987" type="car" route="r_3" depart="987" color= "1,0,0"/>
    <vehicle id="SN_989" type="car" route="r_1" depart="989" color="0,0,1"/>
    <vehicle id="EW_996" type="car" route="r_4" depart="996" color= "1,0,0"/>
    <vehicle id="WE_999" type="car" route="r_8" depart="999" />
    <vehicle id="SN_999" type="car" route="r_2" depart="999" color="0,0,1"/>
    <vehicle id="NS_1003" type="car" route="r_10" depart="1003" color="0,1,0"/>
    <vehicle id="NS_1004" type="car" route="r_10" depart="1004" color="0,1,0"/>
    <vehicle id="SN_1005" type="truck" route="r_1" depart="1005" color="0,0,1"/>
    <vehicle id="WE_1010" type="car" route="r_6" depart="1010" />
    <vehicle id="EW_1010" type="car" route="r_4" depart="1010" color= "1,0,0"/>
    <vehicle id="NS_1010" type="car" route="r_11" depart="1010" color="0,1,0"/>
    <vehicle id="NS_1017" type="car" route="r_11" depart="1017" color="0,1,0"/>
    <vehicle id="EW_1019" type="car" route="r_5" depart="1019" color= "1,0,0"/>
    <vehicle id="WE_1020" type="car" route="r_7" depart="1020" />
    <vehicle id="SN_1022" type="car" route="r_0" depart="1022" color="0,0,1"/>
    <vehicle id="NS_1025" type="car" route="r_10" depart="1025" color="0,1,0"/>
    <vehicle id="SN_1033" type="car" route="r_0" depart="1033" color="0,0,1"/>
    <vehicle id="SN_1040" type="car" route="r_1" depart="1040" color="0,0,1"/>
    <vehicle id="NS_1044" type="car" route="r_10" depart="1044" color="0,1,0"/>
    <vehicle id="EW_1048" type="car" route="r_4" depart="1048" color= "1,0,0"/>
    <vehicle id="WE_1059" type="car" route="r_7" depart="1059" />
    <vehicle id="NS_1065" type="car" route="r_11" depart="1065" color="0,1,0"/>
    <vehicle id="SN_1069" type="car" route="r_2" depart="1069" color="0,0,1"/>
    <vehicle id="EW_1070" type="car" route="r_5" depart="1070" color= "1,0,0"/>
    <vehicle id="WE_1077" type="truck" route="r_6" depart="1077" />
    <vehicle id="EW_1078" type="car" route="r_3" depart="1078" color= "1,0,0"/>
    <vehicle id="EW_1079" type="car" route="r_5" depart="1079" color= "1,0,0"/>
    <vehicle id="WE_1080" type="truck" route="r_7" depart="1080" />
    <vehicle id="SN_1086" type="car" route="r_2" depart="1086" color="0,0,1"/>
    <vehicle id="EW_1087" type="car" route="r_3" depart="1087" color= "1,0,0"/>
    <vehicle id="WE_1088" type="car" route="r_8" depart="1088" />
    <vehicle id="EW_1088" type="car" route="r_3" depart="1088" color= "1,0,0"/>
    <vehicle id="WE_1090" type="car" route="r_7" depart="1090" />
    <vehicle id="EW_1092" type="car" route="r_3" depart="1092" color= "1,0,0"/>
    <vehicle id="WE_1093" type="car" route="r_6" depart="1093" />