<routes>
        <vType id="car" vClass="passenger" length="4" maxSpeed="25.0" accel="2.6" decel="4.5"/>
        <vType id="truck" vClass="truck" length="10" maxSpeed="20.0" accel="1.2" decel="2.5"/>

        <route id="r_0" edges="3i 1o"/>
        <route id="r_1" edges="3i 4o"/>
        <route id="r_10" edges="2i 3o"/>
        <route id="r_11" edges="2i 4o"/>
        <route id="r_2" edges="3i 2o"/>
        <route id="r_3" edges="4i 3o"/>
        <route id="r_4" edges="4i 2o"/>
        <route id="r_5" edges="4i 1o"/>
        <route id="r_6" edges="1i 2o"/>
        <route id="r_7" edges="1i 4o"/>
        <route id="r_8" edges="1i 3o"/>
        <route id="r_9" edges="2i 1o"/>
    <vehicle id="NS_3" type="car" route="r_10" depart="3" color="0,1,0"/>
    <vehicle id="SN_3" type="car" route="r_0" depart="3" color="0,0,1"/>
    <vehicle id="WE_4" type="truck" route="r_6" depart="4" />
    <vehicle id="EW_4" type="car" route="r_3" depart="4" color= "1,0,0"/>
    <vehicle id="WE_8" type="car" route="r_6" depart="8" />
    <vehicle id="EW_8" type="car" route="r_4" depart="8" color= "1,0,0"/>
    <vehicle id="NS_8" type="car" route="r_10" depart="8" color="0,1,0"/>
    <vehicle id="NS_9" type="truck" route="r_10" depart="9" color="0,1,0"/>
    <vehicle id="WE_10" type="car" route="r_8" depart="10" />
    <vehicle id="EW_12" type="car" route="r_4" depart="12" color= "1,0,0"/>
    <vehicle id="NS_16" type="car" route="r_11" depart="16" color="0,1,0"/>
    <vehicle id="NS_20" type="car" route="r_11" depart="20" color="0,1,0"/>
    <vehicle id="SN_22" type="car" route="r_0" depart="22" color="0,0,1"/>
    <vehicle id="EW_23" type="car" route="r_4" depart="23" color= "1,0,0"/>
    <vehicle id="WE_24" type="car" route="r_7" depart="24" />
    <vehicle id="NS_28" type="car" route="r_10" depart="28" color="0,1,0"/>
    <vehicle id="NS_30" type="car" route="r_10" depart="30" color="0,1,0"/>
    <vehicle id="EW_33" type="car" route="r_3" depart="33" color= "1,0,0"/>
    <vehicle id="SN_38" type="car" route="r_1" depart="38" color="0,0,1"/>
    <vehicle id="EW_39" type="car" route="r_5" depart="39" color= "1,0,0"/>
    <vehicle id="NS_41" type="car" route="r_11" depart="41" color="0,1,0"/>
    <vehicle id="WE_42" type="car" route="r_8" depart="42" />
    <vehicle id="SN_43" type="car" route="r_1" depart="43" color="0,0,1"/>
    <vehicle id="EW_45" type="car" route="r_5" depart="45" color= "1,0,0"/>
    <vehicle id="SN_49" type="car" route="r_2" depart="49" color="0,0,1"/>
    <vehicle id="EW_50" type="car" route="r_4" depart="50" color= "1,0,0"/>
    <vehicle id="EW_53" type="car" route="r_4" depart="53" color= "1,0,0"/>
    <vehicle id="WE_54" type="car" route="r_6" depart="54" />
    <vehicle id="EW_60" type="car" route="r_3" depart="60" color= "1,0,0"/>
    <vehicle id="NS_61" type="car" route="r_11" depart="61" color="0,1,0"/>
    <vehicle id="SN_65" type="car" route="r_2" depart="65" color="0,0,1"/>
    <vehicle id="EW_72" type="car" route="r_5" depart="72" color= "1,0,0"/>
    <vehicle id="SN_73" type="car" route="r_1" depart="73" color="0,0,1"/>
    <vehicle id="WE_79" type="car" route="r_8" depart="79" />
    <vehicle id="WE_83" type="car" route="r_6" depart="83" />
    <vehicle id="SN_87" type="car" route="r_0" depart="87" color="0,0,1"/>
    <vehicle id="WE_97" type="car" route="r_7" depart="97" />
    <vehicle id="WE_98" type="car" route="r_7" depart="98" />
    <vehicle id="WE_101" type="car" route="r_7" depart="101" />
    <vehicle id="SN_101" type="car" route="r_0" depart="101" color="0,0,1"/>
    <vehicle id="WE_102" type="car" route="r_6" depart="102" />
    <vehicle id="WE_104" type="truck" route="r_8" depart="104" />
    <vehicle id="SN_112" type="car" route="r_1" depart="112" color="0,0,1"/>
    <vehicle id="WE_117" type="car" route="r_6" depart="117" />
    <vehicle id="EW_118" type="car" route="r_4" depart="118" color= "1,0,0"/>
    <vehicle id="WE_121" type="car" route="r_7" depart="121" />
    <vehicle id="EW_122" type="car" route="r_3" depart="122" color= "1,0,0"/>
    <vehicle id="WE_131" type="car" route="r_6" depart="131" />
    <vehicle id="WE_133" type="truck" route="r_8" depart="133" />
    <vehicle id="WE_134" type="car" route="r_7" depart="134" />
    <vehicle id="NS_135" type="car" route="r_9" depart="135" color="0,1,0"/>
    <vehicle id="SN_143" type="car" route="r_1" depart="143" color="0,0,1"/>
    <vehicle id="NS_144" type="car" route="r_10" depart="144" color="0,1,0"/>
    <vehicle id="NS_145" type="car" route="r_10" depart="145" color="0,1,0"/>
    <vehicle id="EW_149" type="car" route="r_5" depart="149" color= "1,0,0"/>
    <vehicle id="SN_151" type="car" route="r_1" depart="151" color="0,0,1"/>
    <vehicle id="WE_155" type="car" route="r_6" depart="155" />
    <vehicle id="EW_158" type="car" route="r_4" depart="158" color= "1,0,0"/>
    <vehicle id="WE_159" type="car" route="r_8" depart="159" />
    <vehicle id="WE_160" type="car" route="r_7" depart="160" />
    <vehicle id="EW_160" type="car" route="r_4" depart="160" color= "1,0,0"/>
    <vehicle id="SN_161" type="car" route="r_0" depart="161" color="0,0,1"/>
    <vehicle id="WE_164" type="car" route="r_8" depart="164" />
    <vehicle id="EW_164" type="car" route="r_3" depart="164" color= "1,0,0"/>
    <vehicle id="NS_165" type="car" route="r_11" depart="165" color="0,1,0"/>
    <vehicle id="NS_167" type="car" route="r_11" depart="167" color="0,1,0"/>
    <vehicle id="NS_168" type="car" route="r_10" depart="168" color="0,1,0"/>
    <vehicle id="WE_173" type="car" route="r_7" depart="173" />
    <vehicle id="NS_178" type="truck" route="r_11" depart="178" color="0,1,0"/>
    <vehicle id="SN_180" type="truck" route="r_1" depart="180" color="0,0,1"/>
    <vehicle id="WE_189" type="car" route="r_6" depart="189" />
    <vehicle id="WE_190" type="truck" route="r_6" depart="190" />
    <vehicle id="WE_191" type="car" route="r_8" depart="191" />
    <vehicle id="SN_191" type="truck" route="r_0" depart="191" color="0,0,1"/>
    <vehicle id="EW_194" type="car" route="r_4" depart="194" color= "1,0,0"/>
    <vehicle id="WE_200" type="car" route="r_8" depart="200" />
    <vehicle id="NS_204" type="car" route="r_9" depart="204" color="0,1,0"/>
    <vehicle id="WE_207" type="car" route="r_7" depart="207" />
    <vehicle id="EW_207" type="truck" route="r_5" depart="207" color= "1,0,0"/>
    <vehicle id="NS_210" type="car" route="r_10" depart="210" color="0,1,0"/>
    <vehicle id="SN_210" type="car" route="r_1" depart="210" color="0,0,1"/>
    <vehicle id="WE_211" type="car" route="r_6" depart="211" />
    <vehicle id="SN_211" type="car" route="r_0" depart="211" color="0,0,1"/>
    <vehicle id="EW_214" type="car" route="r_5" depart="214" color= "1,0,0"/>
    <vehicle id="NS_217" type="car" route="r_9" depart="217" color="0,1,0"/>
    <vehicle id="WE_218" type="car" route="r_8" depart="218" />
    <vehicle id="SN_219" type="car" route="r_1" depart="219" color="0,0,1"/>
    <vehicle id="SN_221" type="car" route="r_2" depart="221" color="0,0,1"/>
    <vehicle id="EW_226" type="car" route="r_4" depart="226" color= "1,0,0"/>
    <vehicle id="SN_229" type="car" route="r_1" depart="229" color="0,0,1"/>
    <vehicle id="WE_233" type="car" route="r_6" depart="233" />
    <vehicle id="SN_234" type="car" route="r_0" depart="234" color="0,0,1"/>
    <vehicle id="WE_235" type="car" route="r_7" depart="235" />
    <vehicle id="NS_236" type="car" route="r_9" depart="236" color="0,1,0"/>
    <vehicle id="WE_237" type="truck" route="r_7" depart="237" />
    <vehicle id="WE_244" type="car" route="r_7" depart="244" />
    <vehicle id="NS_244" type="car" route="r_9" depart="244" color="0,1,0"/>
    <vehicle id="EW_248" type="car" route="r_5" depart="248" color= "1,0,0"/>
    <vehicle id="WE_249" type="car" route="r_8" depart="249" />
    <vehicle id="WE_250" type="car" route="r_6" depart="250" />
    <vehicle id="NS_250" type="car" route="r_9" depart="250" color="0,1,0"/>
    <vehicle id="SN_253" type="car" route="r_2" depart="253" color="0,0,1"/>
    <vehicle id="EW_254" type="car" route="r_5" depart="254" color= "1,0,0"/>
    <vehicle id="NS_254" type="car" route="r_9" depart="254" color="0,1,0"/>
    <vehicle id="NS_255" type="car" route="r_11" depart="255" color="0,1,0"/>
    <vehicle id="EW_256" type="car" route="r_3" depart="256" color= "1,0,0"/>
    <vehicle id="SN_259" type="car" route="r_1" depart="259" color="0,0,1"/>
    <vehicle id="WE_260" type="car" route="r_8" depart="260" />
    <vehicle id="SN_267" type="car" route="r_0" depart="267" color="0,0,1"/>
    <vehicle id="SN_269" type="truck" route="r_1" depart="269" color="0,0,1"/>
    <vehicle id="WE_270" type="car" route="r_6" depart="270" />
    <vehicle id="EW_271" type="car" route="r_3" depart="271" color= "1,0,0"/>
    <vehicle id="SN_284" type="car" route="r_2" depart="284" color="0,0,1"/>
    <vehicle id="SN_285" type="truck" route="r_2" depart="285" color="0,0,1"/>
    <vehicle id="EW_287" type="car" route="r_5" depart="287" color= "1,0,0"/>
    <vehicle id="EW_288" type="car" route="r_5" depart="288" color= "1,0,0"/>
    <vehicle id="WE_289" type="car" route="r_6" depart="289" />
    <vehicle id="SN_290" type="car" route="r_0" depart="290" color="0,0,1"/>
    <vehicle id="WE_294" type="car" route="r_7" depart="294" />
    <vehicle id="NS_297" type="car" route="r_11" depart="297" color="0,1,0"/>
    <vehicle id="NS_298" type="car" route="r_9" depart="298" color="0,1,0"/>
    <vehicle id="SN_298" type="truck" route="r_1" depart="298" color="0,0,1"/>
    <vehicle id="NS_306" type="car" route="r_9" depart="306" color="0,1,0"/>
    <vehicle id="SN_306" type="car" route="r_1" depart="306" color="0,0,1"/>
    <vehicle id="SN_308" type="car" route="r_2" depart="308" color="0,0,1"/>
    <vehicle id="EW_309" type="car" route="r_4" depart="309" color= "1,0,0"/>
    <vehicle id="WE_313" type="car" route="r_8" depart="313" />
    <vehicle id="SN_314" type="car" route="r_0" depart="314" color="0,0,1"/>
    <vehicle id="EW_315" type="car" route="r_5" depart="315" color= "1,0,0"/>
    <vehicle id="SN_319" type="car" route="r_2" depart="319" color="0,0,1"/>
    <vehicle id="WE_324" type="car" route="r_7" depart="324" />
    <vehicle id="SN_333" type="car" route="r_2" depart="333" color="0,0,1"/>
    <vehicle id="WE_336" type="car" route="r_7" depart="336" />
    <vehicle id="EW_338" type="car" route="r_3" depart="338" color= "1,0,0"/>
    <vehicle id="EW_343" type="car" route="r_5" depart="343" color= "1,0,0"/>
    <vehicle id="SN_346" type="car" route="r_1" depart="346" color="0,0,1"/>
    <vehicle id="NS_348" type="car" route="r_11" depart="348" color="0,1,0"/>
    <vehicle id="WE_351" type="car" route="r_6" depart="351" />
    <vehicle id="EW_354" type="car" route="r_3" depart="354" color= "1,0,0"/>
    <vehicle id="WE_355" type="car" route="r_6" depart="355" />
    <vehicle id="SN_356" type="car" route="r_1" depart="356" color="0,0,1"/>
    <vehicle id="SN_359" type="car" route="r_1" depart="359" color="0,0,1"/>
    <vehicle id="WE_360" type="car" route="r_7" depart="360" />
    <vehicle id="SN_362" type="car" route="r_2" depart="362" color="0,0,1"/>
    <vehicle id="EW_369" type="car" route="r_4" depart="369" color= "1,0,0"/>
    <vehicle id="WE_370" type="truck" route="r_7" depart="370" />
    <vehicle id="WE_373" type="car" route="r_7" depart="373" />
    <vehicle id="SN_375" type="car" route="r_2" depart="375" color="0,0,1"/>
    <vehicle id="WE_376" type="car" route="r_8" depart="376" />
    <vehicle id="EW_383" type="car" route="r_4" depart="383" color= "1,0,0"/>
    <vehicle id="WE_384" type="car" route="r_8" depart="384" />
    <vehicle id="EW_385" type="car" route="r_4" depart="385" color= "1,0,0"/>
    <vehicle id="WE_386" type="car" route="r_6" depart="386" />
    <vehicle id="NS_391" type="car" route="r_11" depart="391" color="0,1,0"/>
    <vehicle id="NS_393" type="car" route="r_10" depart="393" color="0,1,0"/>
    <vehicle id="WE_406" type="car" route="r_6" depart="406" />
    <vehicle id="SN_409" type="car" route="r_1" depart="409" color="0,0,1"/>
    <vehicle id="NS_412" type="car" route="r_9" depart="412" color="0,1,0"/>
    <vehicle id="SN_413" type="truck" route="r_2" depart="413" color="0,0,1"/>
    <vehicle id="WE_415" type="car" route="r_7" depart="415" />
    <vehicle id="SN_415" type="car" route="r_2" depart="415" color="0,0,1"/>
    <vehicle id="WE_419" type="car" route="r_8" depart="419" />
    <vehicle id="WE_420" type="car" route="r_7" depart="420" />
    <vehicle id="WE_422" type="car" route="r_8" depart="422" />
    <vehicle id="NS_422" type="truck" route="r_10" depart="422" color="0,1,0"/>
    <vehicle id="SN_428" type="car" route="r_2" depart="428" color="0,0,1"/>
    <vehicle id="EW_429" type="car" route="r_4" depart="429" color= "1,0,0"/>
    <vehicle id="NS_429" type="truck" route="r_9" depart="429" color="0,1,0"/>
    <vehicle id="SN_429" type="car" route="r_1" depart="429" color="0,0,1"/>
    <vehicle id="SN_431" type="car" route="r_1" depart="431" color="0,0,1"/>
    <vehicle id="NS_433" type="car" route="r_11" depart="433" color="0,1,0"/>
    <vehicle id="SN_433" type="car" route="r_1" depart="433" color="0,0,1"/>
    <vehicle id="SN_434" type="car" route="r_0" depart="434" color="0,0,1"/>
    <vehicle id="EW_438" type="car" route="r_4" depart="438" color= "1,0,0"/>
    <vehicle id="EW_442" type="car" route="r_3" depart="442" color= "1,0,0"/>
    <vehicle id="EW_445" type="car" route="r_3" depart="445" color= "1,0,0"/>
    <vehicle id="EW_450" type="car" route="r_5" depart="450" color= "1,0,0"/>
    <vehicle id="EW_451" type="car" route="r_4" depart="451" color= "1,0,0"/>
    <vehicle id="NS_456" type="truck" route="r_10" depart="456" color="0,1,0"/>
    <vehicle id="WE_457" type="car" route="r_8" depart="457" />
    <vehicle id="NS_461" type="car" route="r_9" depart="461" color="0,1,0"/>
    <vehicle id="SN_465" type="car" route="r_1" depart="465" color="0,0,1"/>
    <vehicle id="SN_466" type="truck" route="r_1" depart="466" color="0,0,1"/>
    <vehicle id="WE_467" type="car" route="r_7" depart="467" />
    <vehicle id="EW_470" type="car" route="r_5" depart="470" color= "1,0,0"/>
    <vehicle id="SN_473" type="truck" route="r_1" depart="473" color="0,0,1"/>
    <vehicle id="EW_474" type="car" route="r_5" depart="474" color= "1,0,0"/>
    <vehicle id="WE_478" type="car" route="r_8" depart="478" />
    <vehicle id="EW_479" type="car" route="r_4" depart="479" color= "1,0,0"/>
    <vehicle id="WE_485" type="car" route="r_7" depart="485" />
    <vehicle id="SN_486" type="car" route="r_2" depart="486" color="0,0,1"/>
    <vehicle id="EW_487" type="truck" route="r_3" depart="487" color= "1,0,0"/>
    <vehicle id="EW_489" type="car" route="r_4" depart="489" color= "1,0,0"/>
    <vehicle id="SN_490" type="truck" route="r_0" depart="490" color="0,0,1"/>
    <vehicle id="NS_492" type="car" route="r_9" depart="492" color="0,1,0"/>
    <vehicle id="NS_498" type="car" route="r_9" depart="498" color="0,1,0"/>
    <vehicle id="SN_499" type="car" route="r_1" depart="499" color="0,0,1"/>
    <vehicle id="EW_502" type="car" route="r_3" depart="502" color= "1,0,0"/>
    <vehicle id="NS_505" type="car" route="r_9" depart="505" color="0,1,0"/>
    <vehicle id="WE_508" type="truck" route="r_8" depart="508" />
    <vehicle id="SN_510" type="car" route="r_0" depart="510" color="0,0,1"/>
    <vehicle id="EW_512" type="car" route="r_3" depart="512" color= "1,0,0"/>
    <vehicle id="WE_518" type="car" route="r_7" depart="518" />
    <vehicle id="EW_518" type="car" route="r_5" depart="518" color= "1,0,0"/>
    <vehicle id="WE_530" type="car" route="r_8" depart="530" />
    <vehicle id="EW_532" type="car" route="r_3" depart="532" color= "1,0,0"/>
    <vehicle id="WE_539" type="truck" route="r_8" depart="539" />
    <vehicle id="EW_544" type="car" route="r_4" depart="544" color= "1,0,0"/>
    <vehicle id="SN_544" type="car" route="r_2" depart="544" color="0,0,1"/>
    <vehicle id="NS_545" type="car" route="r_10" depart="545" color="0,1,0"/>
    <vehicle id="EW_550" type="truck" route="r_3" depart="550" color= "1,0,0"/>
    <vehicle id="NS_550" type="car" route="r_9" depart="550" color="0,1,0"/>
    <vehicle id="SN_556" type="car" route="r_1" depart="556" color="0,0,1"/>
    <vehicle id="WE_559" type="truck" route="r_8" depart="559" />
    <vehicle id="WE_561" type="car" route="r_7" depart="561" />
    <vehicle id="EW_563" type="car" route="r_3" depart="563" color= "1,0,0"/>
    <vehicle id="WE_569" type="truck" route="r_7" depart="569" />
    <vehicle id="EW_569" type="car" route="r_5" depart="569" color= "1,0,0"/>
    <vehicle id="WE_570" type="car" route="r_7" depart="570" />
    <vehicle id="WE_575" type="car" route="r_8" depart="575" />
    <vehicle id="NS_575" type="car" route="r_11" depart="575" color="0,1,0"/>
    <vehicle id="WE_576" type="car" route="r_7" depart="576" />
    <vehicle id="EW_576" type="car" route="r_4" depart="576" color= "1,0,0"/>
    <vehicle id="SN_577" type="car" route="r_0" depart="577" color="0,0,1"/>
    <vehicle id="WE_578" type="car" route="r_8" depart="578" />
    <vehicle id="WE_580" type="car" route="r_7" depart="580" />
    <vehicle id="SN_583" type="car" route="r_2" depart="583" color="0,0,1"/>
    <vehicle id="SN_588" type="car" route="r_2" depart="588" color="0,0,1"/>
    <vehicle id="NS_592" type="car" route="r_10" depart="592" color="0,1,0"/>
    <vehicle id="SN_592" type="car" route="r_0" depart="592" color="0,0,1"/>
    <vehicle id="EW_596" type="car" route="r_4" depart="596" color= "1,0,0"/>
    <vehicle id="EW_597" type="car" route="r_4" depart="597" color= "1,0,0"/>
    <vehicle id="NS_597" type="car" route="r_10" depart="597" color="0,1,0"/>
    <vehicle id="SN_603" type="car" route="r_0" depart="603" color="0,0,1"/>
    <vehicle id="EW_604" type="car" route="r_3" depart="604" color= "1,0,0"/>
    <vehicle id="NS_604" type="car" route="r_9" depart="604" color="0,1,0"/>
    <vehicle id="EW_605" type="car" route="r_3" depart="605" color= "1,0,0"/>
    <vehicle id="WE_606" type="truck" route="r_7" depart="606" />
    <vehicle id="NS_608" type="truck" route="r_10" depart="608" color="0,1,0"/>
    <vehicle id="SN_608" type="truck" route="r_0" depart="608" color="0,0,1"/>
    <vehicle id="SN_612" type="truck" route="r_2" depart="612" color="0,0,1"/>
    <vehicle id="WE_615" type="car" route="r_6" depart="615" />
    <vehicle id="NS_616" type="car" route="r_10" depart="616" color="0,1,0"/>
    <vehicle id="SN_619" type="car" route="r_2" depart="619" color="0,0,1"/>
    <vehicle id="NS_621" type="car" route="r_9" depart="621" color="0,1,0"/>
    <vehicle id="WE_623" type="car" route="r_6" depart="623" />
    <vehicle id="EW_624" type="car" route="r_3" depart="624" color= "1,0,0"/>
    <vehicle id="NS_625" type="car" route="r_11" depart="625" color="0,1,0"/>
    <vehicle id="WE_626" type="car" route="r_8" depart="626" />
    <vehicle id="SN_632" type="car" route="r_1" depart="632" color="0,0,1"/>
    <vehicle id="NS_639" type="car" route="r_9" depart="639" color="0,1,0"/>
    <vehicle id="SN_640" type="car" route="r_2" depart="640" color="0,0,1"/>
    <vehicle id="NS_646" type="car" route="r_10" depart="646" color="0,1,0"/>
    <vehicle id="EW_648" type="car" route="r_5" depart="648" color= "1,0,0"/>
    <vehicle id="WE_649" type="car" route="r_8" depart="649" />
    <vehicle id="EW_651" type="car" route="r_3" depart="651" color= "1,0,0"/>
    <vehicle id="EW_652" type="car" route="r_5" depart="652" color= "1,0,0"/>
    <vehicle id="WE_654" type="car" route="r_7" depart="654" />
    <vehicle id="SN_654" type="car" route="r_0" depart="654" color="0,0,1"/>
    <vehicle id="SN_661" type="car" route="r_0" depart="661" color="0,0,1"/>
    <vehicle id="NS_662" type="truck" route="r_9" depart="662" color="0,1,0"/>
    <vehicle id="NS_666" type="truck" route="r_11" depart="666" color="0,1,0"/>
    <vehicle id="NS_667" type="car" route="r_9" depart="667" color="0,1,0"/>
    <vehicle id="WE_668" type="truck" route="r_6" depart="668" />
    <vehicle id="WE_671" type="car" route="r_6" depart="671" />
    <vehicle id="EW_671" type="car" route="r_5" depart="671" color= "1,0,0"/>
    <vehicle id="WE_675" type="truck" route="r_7" depart="675" />
    <vehicle id="NS_676" type="car" route="r_11" depart="676" color="0,1,0"/>
    <vehicle id="SN_676" type="car" route="r_1" depart="676" color="0,0,1"/>
    <vehicle id="NS_677" type="car" route="r_11" depart="677" color="0,1,0"/>
    <vehicle id="EW_680" type="car" route="r_3" depart="680" color= "1,0,0"/>
    <vehicle id="SN_685" type="car" route="r_2" depart="685" color="0,0,1"/>
    <vehicle id="EW_689" type="car" route="r_3" depart="689" color= "1,0,0"/>
    <vehicle id="WE_692" type="truck" route="r_6" depart="692" />
    <vehicle id="SN_692" type="car" route="r_1" depart="692" color="0,0,1"/>
    <vehicle id="EW_693" type="truck" route="r_4" depart="693" color= "1,0,0"/>
    <vehicle id="NS_693" type="car" route="r_10" depart="693" color="0,1,0"/>
    <vehicle id="SN_695" type="car" route="r_1" depart="695" color="0,0,1"/>
    <vehicle id="EW_700" type="car" route="r_4" depart="700" color= "1,0,0"/>
    <vehicle id="NS_700" type="car" route="r_11" depart="700" color="0,1,0"/>
    <vehicle id="WE_703" type="car" route="r_7" depart="703" />
    <vehicle id="EW_703" type="car" route="r_3" depart="703" color= "1,0,0"/>
    <vehicle id="SN_703" type="car" route="r_1" depart="703" color="0,0,1"/>
    <vehicle id="EW_705" type="car" route="r_5" depart="705" color= "1,0,0"/>
    <vehicle id="EW_706" type="car" route="r_5" depart="706" color= "1,0,0"/>
    <vehicle id="SN_709" type="truck" route="r_2" depart="709" color="0,0,1"/>
    <vehicle id="NS_715" type="car" route="r_11" depart="715" color="0,1,0"/>
    <vehicle id="WE_719" type="car" route="r_6" depart="719" />
    <vehicle id="NS_719" type="car" route="r_11" depart="719" color="0,1,0"/>
    <vehicle id="NS_729" type="car" route="r_10" depart="729" color="0,1,0"/>
    <vehicle id="SN_730" type="car" route="r_1" depart="730" color="0,0,1"/>
    <vehicle id="SN_731" type="car" route="r_0" depart="731" color="0,0,1"/>
    <vehicle id="NS_734" type="car" route="r_9" depart="734" color="0,1,0"/>
    <vehicle id="SN_738" type="car" route="r_0" depart="738" color="0,0,1"/>
    <vehicle id="WE_739" type="car" route="r_8" depart="739" />
    <vehicle id="EW_739" type="car" route="r_4" depart="739" color= "1,0,0"/>
    <vehicle id="SN_739" type="car" route="r_1" depart="739" color="0,0,1"/>
    <vehicle id="EW_741" type="car" route="r_3" depart="741" color= "1,0,0"/>
    <vehicle id="EW_742" type="car" route="r_3" depart="742" color= "1,0,0"/>
    <vehicle id="NS_743" type="car" route="r_10" depart="743" color="0,1,0"/>
    <vehicle id="SN_743" type="car" route="r_1" depart="743" color="0,0,1"/>
    <vehicle id="WE_747" type="car" route="r_6" depart="747" />
    <vehicle id="NS_747" type="car" route="r_9" depart="747" color="0,1,0"/>
    <vehicle id="SN_750" type="car" route="r_0" depart="750" color="0,0,1"/>
    <vehicle id="EW_752" type="truck" route="r_4" depart="752" color= "1,0,0"/>
    <vehicle id="NS_755" type="car" route="r_11" depart="755" color="0,1,0"/>
    <vehicle id="EW_756" type="car" route="r_5" depart="756" color= "1,0,0"/>
    <vehicle id="NS_757" type="car" route="r_9" depart="757" color="0,1,0"/>
    <vehicle id="WE_759" type="car" route="r_8" depart="759" />
    <vehicle id="WE_762" type="car" route="r_7" depart="762" />
    <vehicle id="NS_767" type="car" route="r_11" depart="767" color="0,1,0"/>
    <vehicle id="WE_768" type="car" route="r_7" depart="768" />
    <vehicle id="SN_768" type="car" route="r_1" depart="768" color="0,0,1"/>
    <vehicle id="WE_773" type="car" route="r_7" depart="773" />
    <vehicle id="SN_773" type="car" route="r_1" depart="773" color="0,0,1"/>
    <vehicle id="WE_776" type="truck" route="r_6" depart="776" />
    <vehicle id="NS_777" type="car" route="r_10" depart="777" color="0,1,0"/>
    <vehicle id="NS_779" type="truck" route="r_9" depart="779" color="0,1,0"/>
    <vehicle id="NS_780" type="car" route="r_9" depart="780" color="0,1,0"/>
    <vehicle id="NS_782" type="truck" route="r_9" depart="782" color="0,1,0"/>
    <vehicle id="NS_787" type="car" route="r_10" depart="787" color="0,1,0"/>
    <vehicle id="SN_791" type="car" route="r_0" depart="791" color="0,0,1"/>
    <vehicle id="SN_795" type="car" route="r_2" depart="795" color="0,0,1"/>
    <vehicle id="SN_799" type="car" route="r_2" depart="799" color="0,0,1"/>
    <vehicle id="WE_807" type="car" route="r_8" depart="807" />
    <vehicle id="WE_810" type="car" route="r_6" depart="810" />
    <vehicle id="WE_822" type="car" route="r_7" depart="822" />
    <vehicle id="EW_823" type="car" route="r_3" depart="823" color= "1,0,0"/>
    <vehicle id="WE_825" type="car" route="r_6" depart="825" />
    <vehicle id="WE_833" type="car" route="r_7" depart="833" />
    <vehicle id="WE_835" type="car" route="r_8" depart="835" />
    <vehicle id="WE_840" type="car" route="r_6" depart="840" />
    <vehicle id="NS_841" type="car" route="r_10" depart="841" color="0,1,0"/>
    <vehicle id="EW_845" type="truck" route="r_4" depart="845" color= "1,0,0"/>
    <vehicle id="NS_850" type="car" route="r_9" depart="850" color="0,1,0"/>
    <vehicle id="WE_851" type="car" route="r_8" depart="851" />
    <vehicle id="WE_860" type="truck" route="r_7" depart="860" />
    <vehicle id="WE_864" type="car" route="r_8" depart="864" />
    <vehicle id="EW_864" type="car" route="r_3" depart="864" color= "1,0,0"/>
    <vehicle id="SN_865" type="car" route="r_0" depart="865" color="0,0,1"/>
    <vehicle id="WE_866" type="car" route="r_8" depart="866" />
    <vehicle id="SN_866" type="truck" route="r_0" depart="866" color="0,0,1"/>
    <vehicle id="WE_867" type="car" route="r_7" depart="867" />
    <vehicle id="EW_870" type="car" route="r_4" depart="870" color= "1,0,0"/>
    <vehicle id="NS_871" type="car" route="r_9" depart="871" color="0,1,0"/>
    <vehicle id="SN_872" type="car" route="r_2" depart="872" color="0,0,1"/>
    <vehicle id="NS_876" type="car" route="r_11" depart="876" color="0,1,0"/>
    <vehicle id="NS_877" type="car" route="r_11" depart="877" color="0,1,0"/>
    <vehicle id="SN_880" type="car" route="r_2" depart="880" color="0,0,1"/>
    <vehicle id="WE_891" type="car" route="r_6" depart="891" />
    <vehicle id="EW_892" type="car" route="r_4" depart="892" color= "1,0,0"/>
    <vehicle id="EW_894" type="car" route="r_3" depart="894" color= "1,0,0"/>
    <vehicle id="SN_896" type="car" route="r_1" depart="896" color="0,0,1"/>
    <vehicle id="EW_898" type="car" route="r_4" depart="898" color= "1,0,0"/>
    <vehicle id="WE_900" type="car" route="r_8" depart="900" />
    <vehicle id="EW_903" type="car" route="r_4" depart="903" color= "1,0,0"/>
    <vehicle id="SN_903" type="car" route="r_1" depart="903" color="0,0,1"/>
    <vehicle id="NS_911" type="truck" route="r_10" depart="911" color="0,1,0"/>
    <vehicle id="WE_915" type="car" route="r_8" depart="915" />
    <vehicle id="SN_915" type="car" route="r_0" depart="915" color="0,0,1"/>
    <vehicle id="NS_917" type="car" route="r_10" depart="917" color="0,1,0"/>
    <vehicle id="WE_920" type="car" route="r_8" depart="920" />
    <vehicle id="EW_922" type="car" route="r_4" depart="922" color= "1,0,0"/>
    <vehicle id="WE_923" type="car" route="r_7" depart="923" />
    <vehicle id="EW_926" type="car" route="r_5" depart="926" color= "1,0,0"/>
    <vehicle id="EW_927" type="car" route="r_3" depart="927" color= "1,0,0"/>
    <vehicle id="EW_929" type="car" route="r_5" depart="929" color= "1,0,0"/>
    <vehicle id="SN_930" type="car" route="r_1" depart="930" color="0,0,1"/>
    <vehicle id="EW_932" type="car" route="r_5" depart="932" color= "1,0,0"/>
    <vehicle id="EW_935" type="car" route="r_5" depart="935" color= "1,0,0"/>
    <vehicle id="EW_936" type="car" route="r_3" depart="936" color= "1,0,0"/>
    <vehicle id="WE_939" type="car" route="r_8" depart="939" />
    <vehicle id="EW_939" type="car" route="r_5" depart="939" color= "1,0,0"/>
    <vehicle id="EW_945" type="car" route="r_3" depart="945" color= "1,0,0"/>
    <vehicle id="NS_948" type="car" route="r_11" depart="948" color="0,1,0"/>
    <vehicle id="NS_951" type="car" route="r_10" depart="951" color="0,1,0"/>
    <vehicle id="EW_954" type="car" route="r_3" depart="954" color= "1,0,0"/>
    <vehicle id="NS_957" type="car" route="r_11" depart="957" color="0,1,0"/>
    <vehicle id="EW_967" type="car" route="r_3" depart="967" color= "1,0,0"/>
    <vehicle id="NS_983" type="car" route="r_9" depart="983" color="0,1,0"/>
    <vehicle id="SN_987" type="truck" route="r_1" depart="987" color="0,0,1"/>
    <vehicle id="SN_988" type="car" route="r_2" depart="988" color="0,0,1"/>
    <vehicle id="NS_998" type="car" route="r_9" depart="998" color="0,1,0"/>
    <vehicle id="EW_999" type="car" route="r_4" depart="999" color= "1,0,0"/>
    <vehicle id="NS_1001" type="car" route="r_11" depart="1001" color="0,1,0"/>
    <vehicle id="SN_1002" type="car" route="r_0" depart="1002" color="0,0,1"/>
    <vehicle id="NS_1004" type="car" route="r_11" depart="1004" color="0,1,0"/>
    <vehicle id="EW_1010" type="car" route="r_5" depart="1010" color= "1,0,0"/>
    <vehicle id="WE_1011" type="car" route="r_7" depart="1011" />
    <vehicle id="EW_1013" type="car" route="r_3" depart="1013" color= "1,0,0"/>
    <vehicle id="NS_1016" type="car" route="r_11" depart="1016" color="0,1,0"/>
    <vehicle id="NS_1018" type="car" route="r_10" depart="1018" color="0,1,0"/>
    <vehicle id="NS_1019" type="car" route="r_10" depart="1019" color="0,1,0"/>
    <vehicle id="WE_1022" type="car" route="r_6" depart="1022" />
    <vehicle id="WE_1026" type="car" route="r_6" depart="1026" />
    <vehicle id="NS_1028" type="car" route="r_11" depart="1028" color="0,1,0"/>
    <vehicle id="SN_1028" type="car" route="r_0" depart="1028" color="0,0,1"/>