<routes>
        <vType id="car" vClass="passenger" length="4" maxSpeed="25.0" accel="2.6" decel="4.5"/>
        <vType id="truck" vClass="truck" length="10" maxSpeed="20.0" accel="1.2" decel="2.5"/>

        <route id="r_0" edges="3i 1o"/>
        <route id="r_1" edges="3i 4o"/>
        <route id="r_10" edges="2i 3o"/>
        <route id="r_11" edges="2i 4o"/>
        <route id="r_2" edges="3i 2o"/>
        <route id="r_3" edges="4i 3o"/>
        <route id="r_4" edges="4i 2o"/>
        <route id="r_5" edges="4i 1o"/>
        <route id="r_6" edges="1i 2o"/>
        <route id="r_7" edges="1i 4o"/>
        <route id="r_8" edges="1i 3o"/>
        <route id="r_9" edges="2i 1o"/>
    <vehicle id="EW_1" type="car" route="r_5" depart="1" color= "1,0,0"/>
    <vehicle id="SN_4" type="car" route="r_1" depart="4" color="0,0,1"/>
    <vehicle id="EW_5" type="car" route="r_4" depart="5" color= "1,0,0"/>
    <vehicle id="SN_14" type="car" route="r_2" depart="14" color="0,0,1"/>
    <vehicle id="WE_15" type="car" route="r_7" depart="15" />
    <vehicle id="EW_16" type="car" route="r_3" depart="16" color= "1,0,0"/>
    <vehicle id="EW_18" type="car" route="r_3" depart="18" color= "1,0,0"/>
    <vehicle id="NS_19" type="car" route="r_9" depart="19" color="0,1,0"/>
    <vehicle id="EW_24" type="car" route="r_4" depart="24" color= "1,0,0"/>
    <vehicle id="NS_24" type="car" route="r_10" depart="24" color="0,1,0"/>
    <vehicle id="SN_24" type="car" route="r_1" depart="24" color="0,0,1"/>
    <vehicle id="WE_26" type="car" route="r_8" depart="26" />
    <vehicle id="EW_29" type="car" route="r_5" depart="29" color= "1,0,0"/>
    <vehicle id="NS_39" type="truck" route="r_11" depart="39" color="0,1,0"/>
    <vehicle id="SN_42" type="car" route="r_0" depart="42" color="0,0,1"/>
    <vehicle id="EW_43" type="car" route="r_5" depart="43" color= "1,0,0"/>
    <vehicle id="NS_44" type="car" route="r_9" depart="44" color="0,1,0"/>
    <vehicle id="SN_49" type="car" route="r_2" depart="49" color="0,0,1"/>
    <vehicle id="WE_50" type="car" route="r_6" depart="50" />
    <vehicle id="EW_51" type="car" route="r_3" depart="51" color= "1,0,0"/>
    <vehicle id="SN_51" type="truck" route="r_2" depart="51" color="0,0,1"/>
    <vehicle id="WE_52" type="car" route="r_6" depart="52" />
    <vehicle id="WE_55" type="car" route="r_7" depart="55" />
    <vehicle id="WE_59" type="car" route="r_7" depart="59" />
    <vehicle id="NS_63" type="car" route="r_11" depart="63" color="0,1,0"/>
    <vehicle id="SN_63" type="car" route="r_0" depart="63" color="0,0,1"/>
    <vehicle id="NS_64" type="car" route="r_9" depart="64" color="0,1,0"/>
    <vehicle id="EW_66" type="car" route="r_4" depart="66" color= "1,0,0"/>
    <vehicle id="NS_67" type="car" route="r_10" depart="67" color="0,1,0"/>
    <vehicle id="NS_70" type="car" route="r_11" depart="70" color="0,1,0"/>
    <vehicle id="NS_73" type="car" route="r_11" depart="73" color="0,1,0"/>
    <vehicle id="EW_78" type="car" route="r_4" depart="78" color= "1,0,0"/>
    <vehicle id="SN_87" type="car" route="r_2" depart="87" color="0,0,1"/>
    <vehicle id="WE_89" type="car" route="r_7" depart="89" />
    <vehicle id="NS_101" type="car" route="r_11" depart="101" color="0,1,0"/>
    <vehicle id="EW_103" type="car" route="r_3" depart="103" color= "1,0,0"/>
    <vehicle id="WE_106" type="car" route="r_8" depart="106" />
    <vehicle id="EW_110" type="car" route="r_5" depart="110" color= "1,0,0"/>
    <vehicle id="NS_113" type="car" route="r_10" depart="113" color="0,1,0"/>
    <vehicle id="WE_115" type="car" route="r_7" depart="115" />
    <vehicle id="WE_117" type="car" route="r_6" depart="117" />
    <vehicle id="EW_117" type="car" route="r_5" depart="117" color= "1,0,0"/>
    <vehicle id="SN_121" type="car" route="r_0" depart="121" color="0,0,1"/>
    <vehicle id="NS_126" type="car" route="r_11" depart="126" color="0,1,0"/>
    <vehicle id="NS_128" type="car" route="r_9" depart="128" color="0,1,0"/>
    <vehicle id="WE_129" type="car" route="r_7" depart="129" />
    <vehicle id="SN_129" type="car" route="r_1" depart="129" color="0,0,1"/>
    <vehicle id="WE_130" type="truck" route="r_6" depart="130" />
    <vehicle id="SN_131" type="car" route="r_0" depart="131" color="0,0,1"/>
    <vehicle id="EW_135" type="car" route="r_3" depart="135" color= "1,0,0"/>
    <vehicle id="SN_135" type="car" route="r_1" depart="135" color="0,0,1"/>
    <vehicle id="SN_137" type="car" route="r_1" depart="137" color="0,0,1"/>
    <vehicle id="EW_138" type="car" route="r_5" depart="138" color= "1,0,0"/>
    <vehicle id="SN_144" type="car" route="r_2" depart="144" color="0,0,1"/>
    <vehicle id="WE_148" type="car" route="r_8" depart="148" />
    <vehicle id="WE_149" type="car" route="r_6" depart="149" />
    <vehicle id="EW_149" type="car" route="r_4" depart="149" color= "1,0,0"/>
    <vehicle id="SN_149" type="car" route="r_2" depart="149" color="0,0,1"/>
    <vehicle id="EW_152" type="car" route="r_3" depart="152" color= "1,0,0"/>
    <vehicle id="NS_152" type="truck" route="r_9" depart="152" color="0,1,0"/>
    <vehicle id="WE_153" type="car" route="r_6" depart="153" />
    <vehicle id="EW_157" type="car" route="r_4" depart="157" color= "1,0,0"/>
    <vehicle id="NS_157" type="car" route="r_11" depart="157" color="0,1,0"/>
    <vehicle id="SN_159" type="car" route="r_0" depart="159" color="0,0,1"/>
    <vehicle id="WE_166" type="car" route="r_6" depart="166" />
    <vehicle id="EW_168" type="car" route="r_5" depart="168" color= "1,0,0"/>
    <vehicle id="EW_173" type="car" route="r_4" depart="173" color= "1,0,0"/>
    <vehicle id="WE_174" type="car" route="r_8" depart="174" />
    <vehicle id="EW_175" type="car" route="r_3" depart="175" color= "1,0,0"/>
    <vehicle id="WE_176" type="car" route="r_6" depart="176" />
    <vehicle id="NS_177" type="car" route="r_10" depart="177" color="0,1,0"/>
    <vehicle id="SN_180" type="car" route="r_2" depart="180" color="0,0,1"/>
    <vehicle id="SN_187" type="car" route="r_1" depart="187" color="0,0,1"/>
    <vehicle id="NS_194" type="car" route="r_9" depart="194" color="0,1,0"/>
    <vehicle id="SN_194" type="car" route="r_2" depart="194" color="0,0,1"/>
    <vehicle id="SN_195" type="car" route="r_2" depart="195" color="0,0,1"/>
    <vehicle id="WE_196" type="car" route="r_7" depart="196" />
    <vehicle id="SN_196" type="car" route="r_2" depart="196" color="0,0,1"/>
    <vehicle id="SN_198" type="car" route="r_0" depart="198" color="0,0,1"/>
    <vehicle id="SN_199" type="truck" route="r_1" depart="199" color="0,0,1"/>
    <vehicle id="NS_202" type="car" route="r_11" depart="202" color="0,1,0"/>
    <vehicle id="SN_204" type="car" route="r_2" depart="204" color="0,0,1"/>
    <vehicle id="EW_209" type="truck" route="r_4" depart="209" color= "1,0,0"/>
    <vehicle id="WE_210" type="car" route="r_8" depart="210" />
    <vehicle id="NS_219" type="car" route="r_11" depart="219" color="0,1,0"/>
    <vehicle id="WE_220" type="car" route="r_7" depart="220" />
    <vehicle id="NS_225" type="car" route="r_9" depart="225" color="0,1,0"/>
    <vehicle id="SN_225" type="car" route="r_2" depart="225" color="0,0,1"/>
    <vehicle id="WE_230" type="car" route="r_7" depart="230" />
    <vehicle id="EW_230" type="car" route="r_3" depart="230" color= "1,0,0"/>
    <vehicle id="WE_233" type="car" route="r_8" depart="233" />
    <vehicle id="NS_233" type="car" route="r_10" depart="233" color="0,1,0"/>
    <vehicle id="WE_236" type="car" route="r_6" depart="236" />
    <vehicle id="WE_237" type="car" route="r_7" depart="237" />
    <vehicle id="SN_241" type="car" route="r_0" depart="241" color="0,0,1"/>
    <vehicle id="NS_244" type="car" route="r_10" depart="244" color="0,1,0"/>
    <vehicle id="EW_245" type="car" route="r_4" depart="245" color= "1,0,0"/>
    <vehicle id="SN_250" type="car" route="r_2" depart="250" color="0,0,1"/>
    <vehicle id="NS_260" type="car" route="r_11" depart="260" color="0,1,0"/>
    <vehicle id="WE_265" type="car" route="r_6" depart="265" />
    <vehicle id="EW_267" type="car" route="r_3" depart="267" color= "1,0,0"/>
    <vehicle id="NS_271" type="car" route="r_11" depart="271" color="0,1,0"/>
    <vehicle id="SN_276" type="car" route="r_1" depart="276" color="0,0,1"/>
    <vehicle id="SN_278" type="car" route="r_2" depart="278" color="0,0,1"/>
    <vehicle id="WE_283" type="car" route="r_8" depart="283" />
    <vehicle id="SN_284" type="car" route="r_2" depart="284" color="0,0,1"/>
    <vehicle id="EW_285" type="car" route="r_3" depart="285" color= "1,0,0"/>
    <vehicle id="WE_289" type="car" route="r_7" depart="289" />
    <vehicle id="WE_290" type="car" route="r_7" depart="290" />
    <vehicle id="SN_292" type="car" route="r_1" depart="292" color="0,0,1"/>
    <vehicle id="WE_293" type="truck" route="r_7" depart="293" />
    <vehicle id="NS_296" type="car" route="r_9" depart="296" color="0,1,0"/>
    <vehicle id="NS_297" type="car" route="r_9" depart="297" color="0,1,0"/>
    <vehicle id="WE_299" type="truck" route="r_6" depart="299" />
    <vehicle id="SN_299" type="car" route="r_1" depart="299" color="0,0,1"/>
    <vehicle id="SN_300" type="car" route="r_1" depart="300" color="0,0,1"/>
    <vehicle id="EW_301" type="car" route="r_5" depart="301" color= "1,0,0"/>
    <vehicle id="EW_303" type="car" route="r_5" depart="303" color= "1,0,0"/>
    <vehicle id="WE_306" type="car" route="r_7" depart="306" />
    <vehicle id="WE_307" type="car" route="r_7" depart="307" />
    <vehicle id="NS_308" type="car" route="r_11" depart="308" color="0,1,0"/>
    <vehicle id="NS_319" type="truck" route="r_9" depart="319" color="0,1,0"/>
    <vehicle id="NS_320" type="car" route="r_9" depart="320" color="0,1,0"/>
    <vehicle id="SN_324" type="car" route="r_0" depart="324" color="0,0,1"/>
    <vehicle id="SN_326" type="car" route="r_0" depart="326" color="0,0,1"/>
    <vehicle id="SN_330" type="car" route="r_1" depart="330" color="0,0,1"/>
    <vehicle id="SN_336" type="car" route="r_1" depart="336" color="0,0,1"/>
    <vehicle id="SN_339" type="car" route="r_2" depart="339" color="0,0,1"/>
    <vehicle id="SN_340" type="car" route="r_0" depart="340" color="0,0,1"/>
    <vehicle id="WE_343" type="car" route="r_6" depart="343" />
    <vehicle id="EW_343" type="car" route="r_3" depart="343" color= "1,0,0"/>
    <vehicle id="SN_343" type="car" route="r_2" depart="343" color="0,0,1"/>
    <vehicle id="WE_344" type="car" route="r_8" depart="344" />
    <vehicle id="SN_345" type="car" route="r_1" depart="345" color="0,0,1"/>
    <vehicle id="EW_352" type="truck" route="r_5" depart="352" color= "1,0,0"/>
    <vehicle id="EW_358" type="car" route="r_4" depart="358" color= "1,0,0"/>
    <vehicle id="WE_360" type="car" route="r_6" depart="360" />
    <vehicle id="WE_362" type="car" route="r_7" depart="362" />
    <vehicle id="EW_362" type="car" route="r_3" depart="362" color= "1,0,0"/>
    <vehicle id="EW_364" type="car" route="r_4" depart="364" color= "1,0,0"/>
    <vehicle id="WE_365" type="car" route="r_6" depart="365" />
    <vehicle id="SN_366" type="car" route="r_0" depart="366" color="0,0,1"/>
    <vehicle id="NS_369" type="truck" route="r_11" depart="369" color="0,1,0"/>
    <vehicle id="WE_372" type="car" route="r_7" depart="372" />
    <vehicle id="EW_373" type="car" route="r_4" depart="373" color= "1,0,0"/>
    <vehicle id="EW_377" type="car" route="r_4" depart="377" color= "1,0,0"/>
    <vehicle id="SN_390" type="car" route="r_1" depart="390" color="0,0,1"/>
    <vehicle id="WE_395" type="car" route="r_6" depart="395" />
    <vehicle id="SN_395" type="car" route="r_2" depart="395" color="0,0,1"/>
    <vehicle id="NS_397" type="truck" route="r_9" depart="397" color="0,1,0"/>
    <vehicle id="NS_401" type="car" route="r_9" depart="401" color="0,1,0"/>
    <vehicle id="WE_405" type="car" route="r_7" depart="405" />
    <vehicle id="EW_406" type="car" route="r_5" depart="406" color= "1,0,0"/>
    <vehicle id="WE_408" type="car" route="r_7" depart="408" />
    <vehicle id="SN_408" type="car" route="r_1" depart="408" color="0,0,1"/>
    <vehicle id="WE_409" type="car" route="r_8" depart="409" />
    <vehicle id="EW_411" type="car" route="r_3" depart="411" color= "1,0,0"/>
    <vehicle id="NS_416" type="truck" route="r_9" depart="416" color="0,1,0"/>
    <vehicle id="SN_419" type="truck" route="r_0" depart="419" color="0,0,1"/>
    <vehicle id="WE_420" type="car" route="r_6" depart="420" />
    <vehicle id="SN_430" type="car" route="r_2" depart="430" color="0,0,1"/>
    <vehicle id="NS_434" type="truck" route="r_10" depart="434" color="0,1,0"/>
    <vehicle id="WE_439" type="car" route="r_6" depart="439" />
    <vehicle id="EW_439" type="car" route="r_4" depart="439" color= "1,0,0"/>
    <vehicle id="SN_440" type="truck" route="r_1" depart="440" color="0,0,1"/>
    <vehicle id="EW_446" type="car" route="r_5" depart="446" color= "1,0,0"/>
    <vehicle id="NS_446" type="car" route="r_10" depart="446" color="0,1,0"/>
    <vehicle id="SN_446" type="car" route="r_0" depart="446" color="0,0,1"/>
    <vehicle id="WE_449" type="car" route="r_6" depart="449" />
    <vehicle id="NS_461" type="car" route="r_10" depart="461" color="0,1,0"/>
    <vehicle id="SN_461" type="car" route="r_2" depart="461" color="0,0,1"/>
    <vehicle id="WE_462" type="car" route="r_8" depart="462" />
    <vehicle id="EW_472" type="car" route="r_5" depart="472" color= "1,0,0"/>
    <vehicle id="SN_473" type="car" route="r_2" depart="473" color="0,0,1"/>
    <vehicle id="SN_474" type="car" route="r_1" depart="474" color="0,0,1"/>
    <vehicle id="WE_475" type="car" route="r_6" depart="475" />
    <vehicle id="SN_476" type="car" route="r_1" depart="476" color="0,0,1"/>
    <vehicle id="SN_478" type="car" route="r_0" depart="478" color="0,0,1"/>
    <vehicle id="SN_483" type="car" route="r_1" depart="483" color="0,0,1"/>
    <vehicle id="WE_485" type="car" route="r_7" depart="485" />
    <vehicle id="NS_485" type="car" route="r_9" depart="485" color="0,1,0"/>
    <vehicle id="WE_487" type="car" route="r_6" depart="487" />
    <vehicle id="NS_489" type="car" route="r_10" depart="489" color="0,1,0"/>
    <vehicle id="NS_491" type="car" route="r_10" depart="491" color="0,1,0"/>
    <vehicle id="WE_495" type="car" route="r_6" depart="495" />
    <vehicle id="NS_506" type="car" route="r_11" depart="506" color="0,1,0"/>
    <vehicle id="WE_507" type="car" route="r_7" depart="507" />
    <vehicle id="NS_508" type="car" route="r_9" depart="508" color="0,1,0"/>
    <vehicle id="SN_515" type="car" route="r_0" depart="515" color="0,0,1"/>
    <vehicle id="NS_519" type="car" route="r_9" depart="519" color="0,1,0"/>
    <vehicle id="WE_522" type="car" route="r_6" depart="522" />
    <vehicle id="EW_523" type="car" route="r_3" depart="523" color= "1,0,0"/>
    <vehicle id="NS_528" type="car" route="r_11" depart="528" color="0,1,0"/>
    <vehicle id="NS_534" type="car" route="r_11" depart="534" color="0,1,0"/>
    <vehicle id="SN_534" type="car" route="r_0" depart="534" color="0,0,1"/>
    <vehicle id="NS_539" type="car" route="r_11" depart="539" color="0,1,0"/>
    <vehicle id="NS_544" type="car" route="r_10" depart="544" color="0,1,0"/>
    <vehicle id="SN_547" type="car" route="r_0" depart="547" color="0,0,1"/>
    <vehicle id="EW_549" type="car" route="r_5" depart="549" color= "1,0,0"/>
    <vehicle id="NS_553" type="car" route="r_9" depart="553" color="0,1,0"/>
    <vehicle id="EW_554" type="car" route="r_3" depart="554" color= "1,0,0"/>
    <vehicle id="SN_554" type="car" route="r_0" depart="554" color="0,0,1"/>
    <vehicle id="SN_557" type="car" route="r_2" depart="557" color="0,0,1"/>
    <vehicle id="WE_567" type="car" route="r_6" depart="567" />
    <vehicle id="WE_568" type="car" route="r_8" depart="568" />
    <vehicle id="EW_570" type="car" route="r_5" depart="570" color= "1,0,0"/>
    <vehicle id="EW_573" type="car" route="r_5" depart="573" color= "1,0,0"/>
    <vehicle id="NS_583" type="car" route="r_9" depart="583" color="0,1,0"/>
    <vehicle id="SN_588" type="car" route="r_2" depart="588" color="0,0,1"/>
    <vehicle id="WE_591" type="car" route="r_8" depart="591" />
    <vehicle id="EW_599" type="car" route="r_4" depart="599" color= "1,0,0"/>
    <vehicle id="WE_600" type="truck" route="r_6" depart="600" />
    <vehicle id="SN_606" type="car" route="r_2" depart="606" color="0,0,1"/>
    <vehicle id="EW_609" type="car" route="r_5" depart="609" color= "1,0,0"/>
    <vehicle id="WE_612" type="truck" route="r_6" depart="612" />
    <vehicle id="EW_612" type="truck" route="r_4" depart="612" color= "1,0,0"/>
    <vehicle id="WE_615" type="car" route="r_7" depart="615" />
    <vehicle id="WE_616" type="car" route="r_8" depart="616" />
    <vehicle id="SN_617" type="car" route="r_0" depart="617" color="0,0,1"/>
    <vehicle id="WE_624" type="car" route="r_8" depart="624" />
    <vehicle id="EW_625" type="car" route="r_5" depart="625" color= "1,0,0"/>
    <vehicle id="NS_627" type="car" route="r_10" depart="627" color="0,1,0"/>
    <vehicle id="EW_633" type="car" route="r_4" depart="633" color= "1,0,0"/>
    <vehicle id="NS_635" type="car" route="r_10" depart="635" color="0,1,0"/>
    <vehicle id="EW_636" type="car" route="r_3" depart="636" color= "1,0,0"/>
    <vehicle id="SN_637" type="car" route="r_1" depart="637" color="0,0,1"/>
    <vehicle id="SN_638" type="truck" route="r_0" depart="638" color="0,0,1"/>
    <vehicle id="NS_640" type="car" route="r_11" depart="640" color="0,1,0"/>
    <vehicle id="SN_650" type="car" route="r_1" depart="650" color="0,0,1"/>
    <vehicle id="SN_652" type="car" route="r_1" depart="652" color="0,0,1"/>
    <vehicle id="WE_653" type="car" route="r_6" depart="653" />
    <vehicle id="SN_654" type="car" route="r_0" depart="654" color="0,0,1"/>
    <vehicle id="WE_656" type="car" route="r_6" depart="656" />
    <vehicle id="NS_658" type="car" route="r_11" depart="658" color="0,1,0"/>
    <vehicle id="NS_660" type="car" route="r_10" depart="660" color="0,1,0"/>
    <vehicle id="SN_660" type="car" route="r_0" depart="660" color="0,0,1"/>
    <vehicle id="WE_669" type="car" route="r_7" depart="669" />
    <vehicle id="SN_669" type="truck" route="r_0" depart="669" color="0,0,1"/>
    <vehicle id="EW_676" type="car" route="r_4" depart="676" color= "1,0,0"/>
    <vehicle id="SN_676" type="car" route="r_0" depart="676" color="0,0,1"/>
    <vehicle id="SN_679" type="car" route="r_2" depart="679" color="0,0,1"/>
    <vehicle id="SN_680" type="car" route="r_1" depart="680" color="0,0,1"/>
    <vehicle id="EW_682" type="car" route="r_5" depart="682" color= "1,0,0"/>
    <vehicle id="SN_682" type="car" route="r_0" depart="682" color="0,0,1"/>
    <vehicle id="SN_684" type="truck" route="r_1" depart="684" color="0,0,1"/>
    <vehicle id="WE_686" type="car" route="r_7" depart="686" />
    <vehicle id="EW_693" type="truck" route="r_5" depart="693" color= "1,0,0"/>
    <vehicle id="NS_696" type="car" route="r_11" depart="696" color="0,1,0"/>
    <vehicle id="WE_697" type="car" route="r_7" depart="697" />
    <vehicle id="EW_697" type="car" route="r_4" depart="697" color= "1,0,0"/>
    <vehicle id="WE_700" type="car" route="r_6" depart="700" />
    <vehicle id="NS_701" type="truck" route="r_9" depart="701" color="0,1,0"/>
    <vehicle id="WE_704" type="car" route="r_6" depart="704" />
    <vehicle id="WE_712" type="car" route="r_6" depart="712" />
    <vehicle id="NS_713" type="car" route="r_10" depart="713" color="0,1,0"/>
    <vehicle id="SN_714" type="car" route="r_0" depart="714" color="0,0,1"/>
    <vehicle id="EW_715" type="car" route="r_4" depart="715" color= "1,0,0"/>
    <vehicle id="WE_722" type="car" route="r_8" depart="722" />
    <vehicle id="SN_722" type="car" route="r_1" depart="722" color="0,0,1"/>
    <vehicle id="WE_725" type="car" route="r_8" depart="725" />
    <vehicle id="EW_730" type="car" route="r_4" depart="730" color= "1,0,0"/>
    <vehicle id="NS_730" type="car" route="r_10" depart="730" color="0,1,0"/>
    <vehicle id="NS_732" type="car" route="r_9" depart="732" color="0,1,0"/>
    <vehicle id="EW_734" type="car" route="r_3" depart="734" color= "1,0,0"/>
    <vehicle id="NS_735" type="car" route="r_10" depart="735" color="0,1,0"/>
    <vehicle id="WE_738" type="car" route="r_6" depart="738" />
    <vehicle id="NS_738" type="car" route="r_9" depart="738" color="0,1,0"/>
    <vehicle id="WE_742" type="car" route="r_6" depart="742" />
    <vehicle id="NS_742" type="car" route="r_11" depart="742" color="0,1,0"/>
    <vehicle id="EW_746" type="truck" route="r_3" depart="746" color= "1,0,0"/>
    <vehicle id="EW_750" type="car" route="r_4" depart="750" color= "1,0,0"/>
    <vehicle id="NS_753" type="car" route="r_10" depart="753" color="0,1,0"/>
    <vehicle id="WE_754" type="car" route="r_8" depart="754" />
    <vehicle id="EW_754" type="car" route="r_3" depart="754" color= "1,0,0"/>
    <vehicle id="NS_755" type="car" route="r_10" depart="755" color="0,1,0"/>
    <vehicle id="EW_761" type="car" route="r_5" depart="761" color= "1,0,0"/>
    <vehicle id="WE_766" type="car" route="r_6" depart="766" />
    <vehicle id="WE_767" type="car" route="r_7" depart="767" />
    <vehicle id="SN_767" type="car" route="r_1" depart="767" color="0,0,1"/>
    <vehicle id="SN_770" type="car" route="r_2" depart="770" color="0,0,1"/>
    <vehicle id="EW_774" type="car" route="r_3" depart="774" color= "1,0,0"/>
    <vehicle id="NS_774" type="car" route="r_11" depart="774" color="0,1,0"/>
    <vehicle id="EW_776" type="car" route="r_5" depart="776" color= "1,0,0"/>
    <vehicle id="SN_777" type="car" route="r_2" depart="777" color="0,0,1"/>
    <vehicle id="NS_778" type="car" route="r_10" depart="778" color="0,1,0"/>
    <vehicle id="SN_779" type="truck" route="r_2" depart="779" color="0,0,1"/>
    <vehicle id="WE_786" type="car" route="r_6" depart="786" />
    <vehicle id="NS_787" type="car" route="r_9" depart="787" color="0,1,0"/>
    <vehicle id="NS_790" type="car" route="r_11" depart="790" color="0,1,0"/>
    <vehicle id="EW_792" type="car" route="r_4" depart="792" color= "1,0,0"/>
    <vehicle id="WE_796" type="car" route="r_7" depart="796" />
    <vehicle id="EW_800" type="car" route="r_4" depart="800" color= "1,0,0"/>
    <vehicle id="EW_805" type="car" route="r_5" depart="805" color= "1,0,0"/>
    <vehicle id="EW_807" type="car" route="r_3" depart="807" color= "1,0,0"/>
    <vehicle id="SN_808" type="car" route="r_1" depart="808" color="0,0,1"/>
    <vehicle id="EW_811" type="car" route="r_5" depart="811" color= "1,0,0"/>
    <vehicle id="WE_814" type="car" route="r_7" depart="814" />
    <vehicle id="NS_822" type="car" route="r_9" depart="822" color="0,1,0"/>
    <vehicle id="WE_823" type="car" route="r_7" depart="823" />
    <vehicle id="NS_826" type="car" route="r_9" depart="826" color="0,1,0"/>
    <vehicle id="NS_830" type="car" route="r_11" depart="830" color="0,1,0"/>
    <vehicle id="NS_831" type="car" route="r_11" depart="831" color="0,1,0"/>
    <vehicle id="WE_833" type="car" route="r_6" depart="833" />
    <vehicle id="WE_836" type="car" route="r_8" depart="836" />
    <vehicle id="NS_836" type="car" route="r_11" depart="836" color="0,1,0"/>
    <vehicle id="SN_836" type="truck" route="r_0" depart="836" color="0,0,1"/>
    <vehicle id="EW_841" type="car" route="r_5" depart="841" color= "1,0,0"/>
    <vehicle id="WE_843" type="car" route="r_6" depart="843" />
    <vehicle id="EW_847" type="car" route="r_5" depart="847" color= "1,0,0"/>
    <vehicle id="EW_849" type="car" route="r_4" depart="849" color= "1,0,0"/>
    <vehicle id="SN_850" type="car" route="r_2" depart="850" color="0,0,1"/>
    <vehicle id="WE_852" type="car" route="r_8" depart="852" />
    <vehicle id="NS_853" type="car" route="r_9" depart="853" color="0,1,0"/>
    <vehicle id="NS_859" type="car" route="r_10" depart="859" color="0,1,0"/>
    <vehicle id="NS_862" type="car" route="r_10" depart="862" color="0,1,0"/>
    <vehicle id="WE_863" type="car" route="r_6" depart="863" />
    <vehicle id="SN_871" type="car" route="r_2" depart="871" color="0,0,1"/>
    <vehicle id="NS_872" type="car" route="r_10" depart="872" color="0,1,0"/>
    <vehicle id="WE_873" type="car" route="r_7" depart="873" />
    <vehicle id="NS_874" type="car" route="r_9" depart="874" color="0,1,0"/>
    <vehicle id="WE_880" type="car" route="r_6" depart="880" />
    <vehicle id="SN_880" type="car" route="r_2" depart="880" color="0,0,1"/>
    <vehicle id="EW_883" type="car" route="r_4" depart="883" color= "1,0,0"/>
    <vehicle id="NS_890" type="car" route="r_10" depart="890" color="0,1,0"/>
    <vehicle id="WE_894" type="car" route="r_8" depart="894" />
    <vehicle id="SN_896" type="car" route="r_2" depart="896" color="0,0,1"/>
    <vehicle id="WE_899" type="car" route="r_8" depart="899" />
    <vehicle id="SN_899" type="car" route="r_0" depart="899" color="0,0,1"/>
    <vehicle id="SN_901" type="car" route="r_1" depart="901" color="0,0,1"/>
    <vehicle id="NS_909" type="car" route="r_9" depart="909" color="0,1,0"/>
    <vehicle id="WE_913" type="car" route="r_6" depart="913" />
    <vehicle id="EW_920" type="car" route="r_4" depart="920" color= "1,0,0"/>
    <vehicle id="WE_922" type="car" route="r_6" depart="922" />
    <vehicle id="NS_927" type="car" route="r_9" depart="927" color="0,1,0"/>
    <vehicle id="WE_929" type="car" route="r_8" depart="929" />
    <vehicle id="WE_930" type="car" route="r_8" depart="930" />
    <vehicle id="EW_930" type="car" route="r_3" depart="930" color= "1,0,0"/>
    <vehicle id="NS_932" type="car" route="r_10" depart="932" color="0,1,0"/>
    <vehicle id="SN_934" type="car" route="r_0" depart="934" color="0,0,1"/>
    <vehicle id="EW_940" type="car" route="r_5" depart="940" color= "1,0,0"/>
    <vehicle id="NS_943" type="car" route="r_11" depart="943" color="0,1,0"/>
    <vehicle id="NS_948" type="truck" route="r_9" depart="948" color="0,1,0"/>
    <vehicle id="SN_949" type="car" route="r_1" depart="949" color="0,0,1"/>
    <vehicle id="SN_950" type="car" route="r_1" depart="950" color="0,0,1"/>
    <vehicle id="NS_953" type="car" route="r_10" depart="953" color="0,1,0"/>
    <vehicle id="SN_956" type="car" route="r_2" depart="956" color="0,0,1"/>
    <vehicle id="EW_958" type="car" route="r_5" depart="958" color= "1,0,0"/>
    <vehicle id="EW_961" type="truck" route="r_5" depart="961" color= "1,0,0"/>
    <vehicle id="EW_963" type="car" route="r_4" depart="963" color= "1,0,0"/>
    <vehicle id="EW_965" type="car" route="r_4" depart="965" color= "1,0,0"/>
    <vehicle id="EW_968" type="car" route="r_3" depart="968" color= "1,0,0"/>
    <vehicle id="NS_970" type="car" route="r_11" depart="970" color="0,1,0"/>
    <vehicle id="SN_972" type="car" route="r_0" depart="972" color="0,0,1"/>
    <vehicle id="WE_976" type="car" route="r_8" depart="976" />
    <vehicle id="WE_978" type="car" route="r_7" depart="978" />
    <vehicle id="WE_980" type="car" route="r_8" depart="980" />
    <vehicle id="WE_984" type="car" route="r_8" depart="984" />
    <vehicle id="SN_989" type="car" route="r_1" depart="989" color="0,0,1"/>
    <vehicle id="SN_992" type="car" route="r_1" depart="992" color="0,0,1"/>
    <vehicle id="NS_998" type="car" route="r_10" depart="998" color="0,1,0"/>
    <vehicle id="WE_1000" type="car" route="r_7" depart="1000" />
    <vehicle id="NS_1000" type="car" route="r_9" depart="1000" color="0,1,0"/>
    <vehicle id="EW_1003" type="car" route="r_5" depart="1003" color= "1,0,0"/>
    <vehicle id="NS_1004" type="car" route="r_11" depart="1004" color="0,1,0"/>
    <vehicle id="SN_1006" type="car" route="r_2" depart="1006" color="0,0,1"/>
    <vehicle id="NS_1008" type="car" route="r_9" depart="1008" color="0,1,0"/>
    <vehicle id="NS_1009" type="car" route="r_11" depart="1009" color="0,1,0"/>
    <vehicle id="EW_1012" type="car" route="r_5" depart="1012" color= "1,0,0"/>
    <vehicle id="SN_1014" type="car" route="r_0" depart="1014" color="0,0,1"/>
    <vehicle id="SN_1015" type="car" route="r_0" depart="1015" color="0,0,1"/>
    <vehicle id="SN_1017" type="car" route="r_0" depart="1017" color="0,0,1"/>
    <vehicle id="NS_1019" type="car" route="r_9" depart="1019" color="0,1,0"/>
    <vehicle id="SN_1021" type="car" route="r_2" depart="1021" color="0,0,1"/>
    <vehicle id="WE_1024" type="car" route="r_6" depart="1024" />
    <vehicle id="SN_1029" type="car" route="r_2" depart="1029" color="0,0,1"/>
    <vehicle id="NS_1034" type="car" route="r_11" depart="1034" color="0,1,0"/>
    <vehicle id="WE_1041" type="car" route="r_7" depart="1041" />
    <vehicle id="SN_1044" type="car" route="r_0" depart="1044" color="0,0,1"/>
    <vehicle id="NS_1046" type="car" route="r_10" depart="1046" color="0,1,0"/>
    <vehicle id="WE_1050" type="car" route="r_8" depart="1050" />
    <vehicle id="WE_1052" type="car" route="r_6" depart="1052" />
    <vehicle id="NS_1052" type="car" route="r_10" depart="1052" color="0,1,0"/>
    <vehicle id="SN_1052" type="car" route="r_1" depart="1052" color="0,0,1"/>
    <vehicle id="SN_1062" type="car" route="r_1" depart="1062" color="0,0,1"/>
    <vehicle id="WE_1070" type="car" route="r_6" depart="1070" />
    <vehicle id="EW_1071" type="truck" route="r_3" depart="1071" color= "1,0,0"/>
    <vehicle id="NS_1071" type="car" route="r_9" depart="1071" color="0,1,0"/>
    <vehicle id="SN_1073" type="car" route="r_0" depart="1073" color="0,0,1"/>
    <vehicle id="WE_1074" type="car" route="r_7" depart="1074" />
    <vehicle id="WE_1075" type="car" route="r_6" depart="1075" />
    <vehicle id="NS_1079" type="truck" route="r_10" depart="1079" color="0,1,0"/>
    <vehicle id="SN_1082" type="car" route="r_0" depart="1082" color="0,0,1"/>
    <vehicle id="EW_1083" type="car" route="r_3" depart="1083" color= "1,0,0"/>
    <vehicle id="NS_1083" type="truck" route="r_9" depart="1083" color="0,1,0"/>
    <vehicle id="SN_1088" type="car" route="r_2" depart="1088" color="0,0,1"/>