<routes>
        <vType id="car" vClass="passenger" length="4" maxSpeed="25.0" accel="2.6" decel="4.5"/>
        <vType id="truck" vClass="truck" length="10" maxSpeed="20.0" accel="1.2" decel="2.5"/>

        <route id="r_0" edges="3i 1o"/>
        <route id="r_1" edges="3i 4o"/>
        <route id="r_10" edges="2i 3o"/>
        <route id="r_11" edges="2i 4o"/>
        <route id="r_2" edges="3i 2o"/>
        <route id="r_3" edges="4i 3o"/>
        <route id="r_4" edges="4i 2o"/>
        <route id="r_5" edges="4i 1o"/>
        <route id="r_6" edges="1i 2o"/>
        <route id="r_7" edges="1i 4o"/>
        <route id="r_8" edges="1i 3o"/>
        <route id="r_9" edges="2i 1o"/>
    <vehicle id="SN_1" type="car" route="r_0" depart="1" color="0,0,1"/>
    <vehicle id="SN_10" type="car" route="r_1" depart="10" color="0,0,1"/>
    <vehicle id="EW_11" type="car" route="r_4" depart="11" color= "1,0,0"/>
    <vehicle id="SN_14" type="car" route="r_2" depart="14" color="0,0,1"/>
    <vehicle id="EW_17" type="car" route="r_4" depart="17" color= "1,0,0"/>
    <vehicle id="EW_23" type="car" route="r_3" depart="23" color= "1,0,0"/>
    <vehicle id="WE_28" type="car" route="r_8" depart="28" />
    <vehicle id="EW_30" type="truck" route="r_4" depart="30" color= "1,0,0"/>
    <vehicle id="EW_31" type="car" route="r_5" depart="31" color= "1,0,0"/>
    <vehicle id="SN_33" type="car" route="r_0" depart="33" color="0,0,1"/>
    <vehicle id="SN_36" type="car" route="r_1" depart="36" color="0,0,1"/>
    <vehicle id="EW_38" type="car" route="r_5" depart="38" color= "1,0,0"/>
    <vehicle id="EW_40" type="car" route="r_3" depart="40" color= "1,0,0"/>
    <vehicle id="NS_48" type="car" route="r_10" depart="48" color="0,1,0"/>
    <vehicle id="NS_60" type="car" route="r_10" depart="60" color="0,1,0"/>
    <vehicle id="WE_61" type="car" route="r_7" depart="61" />
    <vehicle id="EW_65" type="car" route="r_5" depart="65" color= "1,0,0"/>
    <vehicle id="WE_72" type="car" route="r_7" depart="72" />
    <vehicle id="SN_72" type="car" route="r_1" depart="72" color="0,0,1"/>
    <vehicle id="EW_74" type="car" route="r_5" depart="74" color= "1,0,0"/>
    <vehicle id="NS_78" type="car" route="r_11" depart="78" color="0,1,0"/>
    <vehicle id="WE_79" type="car" route="r_8" depart="79" />
    <vehicle id="NS_84" type="car" route="r_10" depart="84" color="0,1,0"/>
    <vehicle id="SN_85" type="car" route="r_1" depart="85" color="0,0,1"/>
    <vehicle id="SN_87" type="car" route="r_0" depart="87" color="0,0,1"/>
    <vehicle id="NS_89" type="truck" route="r_11" depart="89" color="0,1,0"/>
    <vehicle id="EW_90" type="truck" route="r_5" depart="90" color= "1,0,0"/>
    <vehicle id="NS_91" type="car" route="r_10" depart="91" color="0,1,0"/>
    <vehicle id="NS_92" type="car" route="r_9" depart="92" color="0,1,0"/>
    <vehicle id="SN_99" type="car" route="r_0" depart="99" color="0,0,1"/>
    <vehicle id="WE_100" type="car" route="r_8" depart="100" />
    <vehicle id="EW_100" type="truck" route="r_3" depart="100" color= "1,0,0"/>
    <vehicle id="EW_111" type="car" route="r_3" depart="111" color= "1,0,0"/>
    <vehicle id="EW_112" type="car" route="r_5" depart="112" color= "1,0,0"/>
    <vehicle id="SN_112" type="car" route="r_1" depart="112" color="0,0,1"/>
    <vehicle id="EW_117" type="car" route="r_4" depart="117" color= "1,0,0"/>
    <vehicle id="EW_125" type="car" route="r_3" depart="125" color= "1,0,0"/>
    <vehicle id="WE_127" type="car" route="r_8" depart="127" />
    <vehicle id="NS_127" type="car" route="r_10" depart="127" color="0,1,0"/>
    <vehicle id="NS_128" type="car" route="r_11" depart="128" color="0,1,0"/>
    <vehicle id="WE_132" type="car" route="r_7" depart="132" />
    <vehicle id="NS_132" type="truck" route="r_10" depart="132" color="0,1,0"/>
    <vehicle id="EW_133" type="car" route="r_4" depart="133" color= "1,0,0"/>
    <vehicle id="WE_136" type="car" route="r_7" depart="136" />
    <vehicle id="EW_138" type="car" route="r_5" depart="138" color= "1,0,0"/>
    <vehicle id="WE_139" type="car" route="r_8" depart="139" />
    <vehicle id="WE_140" type="car" route="r_7" depart="140" />
    <vehicle id="WE_144" type="car" route="r_6" depart="144" />
    <vehicle id="EW_144" type="car" route="r_5" depart="144" color= "1,0,0"/>
    <vehicle id="WE_149" type="car" route="r_8" depart="149" />
    <vehicle id="NS_150" type="car" route="r_10" depart="150" color="0,1,0"/>
    <vehicle id="SN_159" type="car" route="r_2" depart="159" color="0,0,1"/>
    <vehicle id="SN_161" type="truck" route="r_2" depart="161" color="0,0,1"/>
    <vehicle id="NS_166" type="car" route="r_10" depart="166" color="0,1,0"/>
    <vehicle id="WE_168" type="car" route="r_7" depart="168" />
    <vehicle id="EW_168" type="car" route="r_4" depart="168" color= "1,0,0"/>
    <vehicle id="WE_183" type="car" route="r_8" depart="183" />
    <vehicle id="SN_187" type="car" route="r_1" depart="187" color="0,0,1"/>
    <vehicle id="WE_188" type="truck" route="r_6" depart="188" />
    <vehicle id="EW_196" type="car" route="r_3" depart="196" color= "1,0,0"/>
    <vehicle id="NS_196" type="car" route="r_11" depart="196" color="0,1,0"/>
    <vehicle id="NS_197" type="truck" route="r_11" depart="197" color="0,1,0"/>
    <vehicle id="NS_198" type="car" route="r_9" depart="198" color="0,1,0"/>
    <vehicle id="SN_199" type="car" route="r_2" depart="199" color="0,0,1"/>
    <vehicle id="SN_202" type="car" route="r_0" depart="202" color="0,0,1"/>
    <vehicle id="EW_205" type="truck" route="r_4" depart="205" color= "1,0,0"/>
    <vehicle id="EW_213" type="car" route="r_3" depart="213" color= "1,0,0"/>
    <vehicle id="EW_223" type="car" route="r_4" depart="223" color= "1,0,0"/>
    <vehicle id="NS_223" type="car" route="r_10" depart="223" color="0,1,0"/>
    <vehicle id="NS_224" type="car" route="r_10" depart="224" color="0,1,0"/>
    <vehicle id="NS_225" type="car" route="r_10" depart="225" color="0,1,0"/>
    <vehicle id="NS_227" type="car" route="r_10" depart="227" color="0,1,0"/>
    <vehicle id="WE_231" type="car" route="r_8" depart="231" />
    <vehicle id="SN_234" type="car" route="r_1" depart="234" color="0,0,1"/>
    <vehicle id="EW_235" type="car" route="r_5" depart="235" color= "1,0,0"/>
    <vehicle id="SN_236" type="car" route="r_2" depart="236" color="0,0,1"/>
    <vehicle id="EW_238" type="car" route="r_4" depart="238" color= "1,0,0"/>
    <vehicle id="SN_238" type="car" route="r_0" depart="238" color="0,0,1"/>
    <vehicle id="WE_239" type="car" route="r_7" depart="239" />
    <vehicle id="NS_241" type="car" route="r_11" depart="241" color="0,1,0"/>
    <vehicle id="SN_243" type="car" route="r_1" depart="243" color="0,0,1"/>
    <vehicle id="EW_246" type="car" route="r_3" depart="246" color= "1,0,0"/>
    <vehicle id="WE_248" type="car" route="r_7" depart="248" />
    <vehicle id="WE_261" type="car" route="r_7" depart="261" />
    <vehicle id="EW_266" type="car" route="r_4" depart="266" color= "1,0,0"/>
    <vehicle id="SN_274" type="car" route="r_0" depart="274" color="0,0,1"/>
    <vehicle id="WE_275" type="car" route="r_7" depart="275" />
    <vehicle id="SN_281" type="car" route="r_0" depart="281" color="0,0,1"/>
    <vehicle id="NS_288" type="car" route="r_9" depart="288" color="0,1,0"/>
    <vehicle id="WE_290" type="truck" route="r_8" depart="290" />
    <vehicle id="NS_290" type="truck" route="r_11" depart="290" color="0,1,0"/>
    <vehicle id="EW_293" type="car" route="r_4" depart="293" color= "1,0,0"/>
    <vehicle id="WE_294" type="truck" route="r_7" depart="294" />
    <vehicle id="SN_300" type="car" route="r_2" depart="300" color="0,0,1"/>
    <vehicle id="NS_306" type="car" route="r_10" depart="306" color="0,1,0"/>
    <vehicle id="SN_309" type="car" route="r_1" depart="309" color="0,0,1"/>
    <vehicle id="WE_310" type="car" route="r_8" depart="310" />
    <vehicle id="SN_321" type="car" route="r_1" depart="321" color="0,0,1"/>
    <vehicle id="WE_324" type="car" route="r_7" depart="324" />
    <vehicle id="EW_329" type="car" route="r_3" depart="329" color= "1,0,0"/>
    <vehicle id="SN_329" type="truck" route="r_2" depart="329" color="0,0,1"/>
    <vehicle id="NS_332" type="car" route="r_11" depart="332" color="0,1,0"/>
    <vehicle id="WE_333" type="car" route="r_7" depart="333" />
    <vehicle id="WE_334" type="car" route="r_7" depart="334" />
    <vehicle id="EW_338" type="car" route="r_5" depart="338" color= "1,0,0"/>
    <vehicle id="EW_339" type="car" route="r_5" depart="339" color= "1,0,0"/>
    <vehicle id="EW_342" type="truck" route="r_3" depart="342" color= "1,0,0"/>
    <vehicle id="EW_348" type="car" route="r_4" depart="348" color= "1,0,0"/>
    <vehicle id="NS_354" type="car" route="r_9" depart="354" color="0,1,0"/>
    <vehicle id="EW_363" type="car" route="r_3" depart="363" color= "1,0,0"/>
    <vehicle id="NS_363" type="car" route="r_9" depart="363" color="0,1,0"/>
    <vehicle id="SN_367" type="car" route="r_2" depart="367" color="0,0,1"/>
    <vehicle id="SN_371" type="car" route="r_0" depart="371" color="0,0,1"/>
    <vehicle id="NS_373" type="car" route="r_11" depart="373" color="0,1,0"/>
    <vehicle id="SN_374" type="car" route="r_2" depart="374" color="0,0,1"/>
    <vehicle id="NS_383" type="car" route="r_10" depart="383" color="0,1,0"/>
    <vehicle id="NS_389" type="car" route="r_11" depart="389" color="0,1,0"/>
    <vehicle id="EW_390" type="car" route="r_5" depart="390" color= "1,0,0"/>
    <vehicle id="SN_394" type="car" route="r_0" depart="394" color="0,0,1"/>
    <vehicle id="SN_399" type="car" route="r_1" depart="399" color="0,0,1"/>
    <vehicle id="NS_401" type="car" route="r_11" depart="401" color="0,1,0"/>
    <vehicle id="WE_406" type="car" route="r_8" depart="406" />
    <vehicle id="WE_407" type="car" route="r_6" depart="407" />
    <vehicle id="SN_407" type="car" route="r_2" depart="407" color="0,0,1"/>
    <vehicle id="WE_410" type="car" route="r_8" depart="410" />
    <vehicle id="NS_411" type="car" route="r_9" depart="411" color="0,1,0"/>
    <vehicle id="EW_412" type="truck" route="r_3" depart="412" color= "1,0,0"/>
    <vehicle id="NS_412" type="car" route="r_9" depart="412" color="0,1,0"/>
    <vehicle id="SN_414" type="car" route="r_2" depart="414" color="0,0,1"/>
    <vehicle id="WE_416" type="car" route="r_7" depart="416" />
    <vehicle id="EW_419" type="car" route="r_3" depart="419" color= "1,0,0"/>
    <vehicle id="NS_421" type="car" route="r_10" depart="421" color="0,1,0"/>
    <vehicle id="NS_422" type="car" route="r_10" depart="422" color="0,1,0"/>
    <vehicle id="NS_423" type="car" route="r_11" depart="423" color="0,1,0"/>
    <vehicle id="SN_430" type="car" route="r_1" depart="430" color="0,0,1"/>
    <vehicle id="WE_433" type="car" route="r_8" depart="433" />
    <vehicle id="EW_433" type="car" route="r_3" depart="433" color= "1,0,0"/>
    <vehicle id="NS_436" type="truck" route="r_9" depart="436" color="0,1,0"/>
    <vehicle id="WE_437" type="car" route="r_8" depart="437" />
    <vehicle id="SN_437" type="car" route="r_2" depart="437" color="0,0,1"/>
    <vehicle id="WE_439" type="car" route="r_6" depart="439" />
    <vehicle id="SN_444" type="car" route="r_0" depart="444" color="0,0,1"/>
    <vehicle id="NS_445" type="car" route="r_11" depart="445" color="0,1,0"/>
    <vehicle id="WE_447" type="car" route="r_8" depart="447" />
    <vehicle id="WE_456" type="truck" route="r_6" depart="456" />
    <vehicle id="EW_457" type="car" route="r_3" depart="457" color= "1,0,0"/>
    <vehicle id="WE_458" type="car" route="r_6" depart="458" />
    <vehicle id="EW_460" type="car" route="r_3" depart="460" color= "1,0,0"/>
    <vehicle id="EW_462" type="car" route="r_4" depart="462" color= "1,0,0"/>
    <vehicle id="EW_468" type="car" route="r_3" depart="468" color= "1,0,0"/>
    <vehicle id="SN_473" type="car" route="r_2" depart="473" color="0,0,1"/>
    <vehicle id="EW_480" type="car" route="r_4" depart="480" color= "1,0,0"/>
    <vehicle id="NS_482" type="car" route="r_9" depart="482" color="0,1,0"/>
    <vehicle id="SN_488" type="car" route="r_1" depart="488" color="0,0,1"/>
    <vehicle id="WE_492" type="car" route="r_8" depart="492" />
    <vehicle id="SN_497" type="car" route="r_1" depart="497" color="0,0,1"/>
    <vehicle id="SN_499" type="car" route="r_1" depart="499" color="0,0,1"/>
    <vehicle id="SN_500" type="car" route="r_2" depart="500" color="0,0,1"/>
    <vehicle id="NS_501" type="car" route="r_9" depart="501" color="0,1,0"/>
    <vehicle id="EW_502" type="car" route="r_5" depart="502" color= "1,0,0"/>
    <vehicle id="NS_504" type="car" route="r_9" depart="504" color="0,1,0"/>
    <vehicle id="SN_504" type="car" route="r_2" depart="504" color="0,0,1"/>
    <vehicle id="NS_505" type="car" route="r_11" depart="505" color="0,1,0"/>
    <vehicle id="NS_513" type="car" route="r_11" depart="513" color="0,1,0"/>
    <vehicle id="WE_517" type="car" route="r_8" depart="517" />
    <vehicle id="NS_519" type="car" route="r_10" depart="519" color="0,1,0"/>
    <vehicle id="WE_522" type="car" route="r_6" depart="522" />
    <vehicle id="SN_524" type="car" route="r_2" depart="524" color="0,0,1"/>
    <vehicle id="WE_525" type="car" route="r_6" depart="525" />
    <vehicle id="SN_526" type="car" route="r_2" depart="526" color="0,0,1"/>
    <vehicle id="WE_529" type="car" route="r_8" depart="529" />
    <vehicle id="EW_531" type="car" route="r_5" depart="531" color= "1,0,0"/>
    <vehicle id="WE_534" type="car" route="r_6" depart="534" />
    <vehicle id="WE_536" type="car" route="r_6" depart="536" />
    <vehicle id="NS_538" type="car" route="r_10" depart="538" color="0,1,0"/>
    <vehicle id="WE_542" type="car" route="r_8" depart="542" />
    <vehicle id="SN_542" type="car" route="r_0" depart="542" color="0,0,1"/>
    <vehicle id="NS_546" type="car" route="r_10" depart="546" color="0,1,0"/>
    <vehicle id="EW_547" type="car" route="r_4" depart="547" color= "1,0,0"/>
    <vehicle id="SN_549" type="car" route="r_0" depart="549" color="0,0,1"/>
    <vehicle id="WE_550" type="car" route="r_8" depart="550" />
    <vehicle id="SN_550" type="car" route="r_2" depart="550" color="0,0,1"/>
    <vehicle id="EW_551" type="car" route="r_3" depart="551" color= "1,0,0"/>
    <vehicle id="SN_552" type="car" route="r_2" depart="552" color="0,0,1"/>
    <vehicle id="SN_557" type="car" route="r_0" depart="557" color="0,0,1"/>
    <vehicle id="NS_558" type="car" route="r_9" depart="558" color="0,1,0"/>
    <vehicle id="WE_561" type="truck" route="r_8" depart="561" />
    <vehicle id="EW_561" type="car" route="r_5" depart="561" color= "1,0,0"/>
    <vehicle id="EW_563" type="car" route="r_5" depart="563" color= "1,0,0"/>
    <vehicle id="EW_566" type="car" route="r_5" depart="566" color= "1,0,0"/>
    <vehicle id="WE_568" type="car" route="r_8" depart="568" />
    <vehicle id="NS_569" type="car" route="r_11" depart="569" color="0,1,0"/>
    <vehicle id="WE_570" type="car" route="r_7" depart="570" />
    <vehicle id="NS_571" type="car" route="r_9" depart="571" color="0,1,0"/>
    <vehicle id="SN_573" type="car" route="r_2" depart="573" color="0,0,1"/>
    <vehicle id="EW_574" type="car" route="r_3" depart="574" color= "1,0,0"/>
    <vehicle id="WE_575" type="car" route="r_6" depart="575" />
    <vehicle id="WE_576" type="car" route="r_8" depart="576" />
    <vehicle id="WE_577" type="car" route="r_6" depart="577" />
    <vehicle id="WE_578" type="car" route="r_6" depart="578" />
    <vehicle id="SN_579" type="car" route="r_0" depart="579" color="0,0,1"/>
    <vehicle id="SN_585" type="car" route="r_1" depart="585" color="0,0,1"/>
    <vehicle id="NS_592" type="car" route="r_9" depart="592" color="0,1,0"/>
    <vehicle id="NS_598" type="truck" route="r_11" depart="598" color="0,1,0"/>
    <vehicle id="EW_608" type="car" route="r_3" depart="608" color= "1,0,0"/>
    <vehicle id="EW_609" type="car" route="r_4" depart="609" color= "1,0,0"/>
    <vehicle id="EW_610" type="car" route="r_3" depart="610" color= "1,0,0"/>
    <vehicle id="WE_613" type="car" route="r_8" depart="613" />
    <vehicle id="SN_613" type="car" route="r_0" depart="613" color="0,0,1"/>
    <vehicle id="EW_618" type="car" route="r_3" depart="618" color= "1,0,0"/>
    <vehicle id="NS_630" type="car" route="r_10" depart="630" color="0,1,0"/>
    <vehicle id="WE_633" type="car" route="r_6" depart="633" />
    <vehicle id="WE_641" type="car" route="r_7" depart="641" />
    <vehicle id="SN_642" type="car" route="r_1" depart="642" color="0,0,1"/>
    <vehicle id="WE_643" type="car" route="r_6" depart="643" />
    <vehicle id="NS_643" type="car" route="r_10" depart="643" color="0,1,0"/>
    <vehicle id="EW_648" type="car" route="r_4" depart="648" color= "1,0,0"/>
    <vehicle id="NS_651" type="car" route="r_10" depart="651" color="0,1,0"/>
    <vehicle id="WE_654" type="car" route="r_6" depart="654" />
    <vehicle id="WE_656" type="car" route="r_7" depart="656" />
    <vehicle id="NS_661" type="car" route="r_10" depart="661" color="0,1,0"/>
    <vehicle id="WE_675" type="car" route="r_6" depart="675" />
    <vehicle id="EW_676" type="car" route="r_4" depart="676" color= "1,0,0"/>
    <vehicle id="NS_676" type="car" route="r_10" depart="676" color="0,1,0"/>
    <vehicle id="SN_678" type="car" route="r_1" depart="678" color="0,0,1"/>
    <vehicle id="EW_680" type="car" route="r_5" depart="680" color= "1,0,0"/>
    <vehicle id="EW_683" type="car" route="r_3" depart="683" color= "1,0,0"/>
    <vehicle id="EW_684" type="car" route="r_3" depart="684" color= "1,0,0"/>
    <vehicle id="NS_684" type="car" route="r_10" depart="684" color="0,1,0"/>
    <vehicle id="SN_691" type="car" route="r_0" depart="691" color="0,0,1"/>
    <vehicle id="WE_692" type="car" route="r_7" depart="692" />
    <vehicle id="EW_694" type="car" route="r_5" depart="694" color= "1,0,0"/>
    <vehicle id="EW_697" type="car" route="r_5" depart="697" color= "1,0,0"/>
    <vehicle id="EW_698" type="car" route="r_3" depart="698" color= "1,0,0"/>
    <vehicle id="WE_700" type="car" route="r_7" depart="700" />
    <vehicle id="WE_702" type="car" route="r_6" depart="702" />
    <vehicle id="NS_703" type="car" route="r_9" depart="703" color="0,1,0"/>
    <vehicle id="EW_705" type="car" route="r_4" depart="705" color= "1,0,0"/>
    <vehicle id="EW_708" type="truck" route="r_4" depart="708" color= "1,0,0"/>
    <vehicle id="NS_709" type="car" route="r_11" depart="709" color="0,1,0"/>
    <vehicle id="WE_712" type="car" route="r_8" depart="712" />
    <vehicle id="EW_713" type="car" route="r_4" depart="713" color= "1,0,0"/>
    <vehicle id="SN_713" type="car" route="r_0" depart="713" color="0,0,1"/>
    <vehicle id="NS_715" type="car" route="r_10" depart="715" color="0,1,0"/>
    <vehicle id="SN_715" type="car" route="r_2" depart="715" color="0,0,1"/>
    <vehicle id="WE_720" type="car" route="r_7" depart="720" />
    <vehicle id="NS_720" type="car" route="r_11" depart="720" color="0,1,0"/>
    <vehicle id="SN_726" type="car" route="r_0" depart="726" color="0,0,1"/>
    <vehicle id="WE_732" type="car" route="r_6" depart="732" />
    <vehicle id="NS_734" type="car" route="r_10" depart="734" color="0,1,0"/>
    <vehicle id="WE_736" type="truck" route="r_7" depart="736" />
    <vehicle id="NS_740" type="car" route="r_11" depart="740" color="0,1,0"/>
    <vehicle id="WE_747" type="car" route="r_7" depart="747" />
    <vehicle id="EW_747" type="car" route="r_4" depart="747" color= "1,0,0"/>
    <vehicle id="NS_749" type="car" route="r_10" depart="749" color="0,1,0"/>
    <vehicle id="WE_750" type="car" route="r_7" depart="750" />
    <vehicle id="WE_751" type="car" route="r_6" depart="751" />
    <vehicle id="NS_754" type="car" route="r_10" depart="754" color="0,1,0"/>
    <vehicle id="SN_755" type="car" route="r_0" depart="755" color="0,0,1"/>
    <vehicle id="WE_758" type="car" route="r_8" depart="758" />
    <vehicle id="NS_759" type="car" route="r_11" depart="759" color="0,1,0"/>
    <vehicle id="SN_759" type="car" route="r_0" depart="759" color="0,0,1"/>
    <vehicle id="NS_760" type="truck" route="r_9" depart="760" color="0,1,0"/>
    <vehicle id="SN_765" type="car" route="r_2" depart="765" color="0,0,1"/>
    <vehicle id="WE_767" type="car" route="r_7" depart="767" />
    <vehicle id="SN_770" type="car" route="r_1" depart="770" color="0,0,1"/>
    <vehicle id="EW_771" type="car" route="r_4" depart="771" color= "1,0,0"/>
    <vehicle id="SN_771" type="car" route="r_2" depart="771" color="0,0,1"/>
    <vehicle id="NS_772" type="car" route="r_10" depart="772" color="0,1,0"/>
    <vehicle id="EW_776" type="car" route="r_4" depart="776" color= "1,0,0"/>
    <vehicle id="NS_776" type="car" route="r_9" depart="776" color="0,1,0"/>
    <vehicle id="NS_780" type="car" route="r_10" depart="780" color="0,1,0"/>
    <vehicle id="NS_784" type="car" route="r_9" depart="784" color="0,1,0"/>
    <vehicle id="NS_789" type="car" route="r_9" depart="789" color="0,1,0"/>
    <vehicle id="WE_793" type="car" route="r_7" depart="793" />
    <vehicle id="NS_793" type="car" route="r_9" depart="793" color="0,1,0"/>
    <vehicle id="SN_794" type="car" route="r_0" depart="794" color="0,0,1"/>
    <vehicle id="NS_795" type="car" route="r_11" depart="795" color="0,1,0"/>
    <vehicle id="NS_796" type="car" route="r_9" depart="796" color="0,1,0"/>
    <vehicle id="NS_798" type="truck" route="r_11" depart="798" color="0,1,0"/>
    <vehicle id="SN_798" type="car" route="r_1" depart="798" color="0,0,1"/>
    <vehicle id="WE_803" type="truck" route="r_8" depart="803" />
    <vehicle id="EW_803" type="car" route="r_3" depart="803" color= "1,0,0"/>
    <vehicle id="WE_806" type="truck" route="r_6" depart="806" />
    <vehicle id="EW_807" type="car" route="r_3" depart="807" color= "1,0,0"/>
    <vehicle id="SN_811" type="car" route="r_1" depart="811" color="0,0,1"/>
    <vehicle id="WE_812" type="car" route="r_7" depart="812" />
    <vehicle id="EW_812" type="car" route="r_3" depart="812" color= "1,0,0"/>
    <vehicle id="SN_818" type="car" route="r_2" depart="818" color="0,0,1"/>
    <vehicle id="EW_820" type="car" route="r_5" depart="820" color= "1,0,0"/>
    <vehicle id="SN_820" type="car" route="r_0" depart="820" color="0,0,1"/>
    <vehicle id="EW_822" type="truck" route="r_4" depart="822" color= "1,0,0"/>
    <vehicle id="WE_823" type="car" route="r_7" depart="823" />
    <vehicle id="WE_824" type="car" route="r_6" depart="824" />
    <vehicle id="NS_824" type="car" route="r_9" depart="824" color="0,1,0"/>
    <vehicle id="EW_827" type="car" route="r_5" depart="827" color= "1,0,0"/>
    <vehicle id="WE_828" type="car" route="r_6" depart="828" />
    <vehicle id="EW_838" type="car" route="r_5" depart="838" color= "1,0,0"/>
    <vehicle id="WE_845" type="car" route="r_6" depart="845" />
    <vehicle id="EW_845" type="car" route="r_3" depart="845" color= "1,0,0"/>
    <vehicle id="WE_846" type="car" route="r_8" depart="846" />
    <vehicle id="NS_846" type="car" route="r_10" depart="846" color="0,1,0"/>
    <vehicle id="WE_850" type="car" route="r_6" depart="850" />
    <vehicle id="NS_850" type="car" route="r_11" depart="850" color="0,1,0"/>
    <vehicle id="EW_852" type="car" route="r_4" depart="852" color= "1,0,0"/>
    <vehicle id="EW_854" type="car" route="r_3" depart="854" color= "1,0,0"/>
    <vehicle id="EW_855" type="car" route="r_3" depart="855" color= "1,0,0"/>
    <vehicle id="SN_855" type="truck" route="r_1" depart="855" color="0,0,1"/>
    <vehicle id="WE_858" type="car" route="r_8" depart="858" />
    <vehicle id="NS_859" type="car" route="r_9" depart="859" color="0,1,0"/>
    <vehicle id="WE_863" type="car" route="r_8" depart="863" />
    <vehicle id="NS_864" type="car" route="r_9" depart="864" color="0,1,0"/>
    <vehicle id="SN_867" type="truck" route="r_0" depart="867" color="0,0,1"/>
    <vehicle id="NS_869" type="car" route="r_10" depart="869" color="0,1,0"/>
    <vehicle id="WE_871" type="car" route="r_8" depart="871" />
    <vehicle id="EW_873" type="car" route="r_4" depart="873" color= "1,0,0"/>
    <vehicle id="SN_879" type="car" route="r_2" depart="879" color="0,0,1"/>
    <vehicle id="NS_885" type="car" route="r_11" depart="885" color="0,1,0"/>
    <vehicle id="WE_891" type="car" route="r_6" depart="891" />
    <vehicle id="EW_892" type="car" route="r_4" depart="892" color= "1,0,0"/>
    <vehicle id="WE_896" type="car" route="r_8" depart="896" />
    <vehicle id="NS_902" type="car" route="r_11" depart="902" color="0,1,0"/>
    <vehicle id="NS_913" type="car" route="r_11" depart="913" color="0,1,0"/>
    <vehicle id="NS_917" type="car" route="r_10" depart="917" color="0,1,0"/>
    <vehicle id="NS_919" type="car" route="r_10" depart="919" color="0,1,0"/>
    <vehicle id="EW_922" type="truck" route="r_4" depart="922" color= "1,0,0"/>
    <vehicle id="WE_923" type="car" route="r_8" depart="923" />
    <vehicle id="NS_923" type="car" route="r_9" depart="923" color="0,1,0"/>
    <vehicle id="EW_925" type="car" route="r_5" depart="925" color= "1,0,0"/>
    <vehicle id="NS_925" type="car" route="r_11" depart="925" color="0,1,0"/>
    <vehicle id="NS_928" type="car" route="r_11" depart="928" color="0,1,0"/>
    <vehicle id="SN_929" type="car" route="r_2" depart="929" color="0,0,1"/>
    <vehicle id="WE_935" type="car" route="r_7" depart="935" />
    <vehicle id="EW_939" type="car" route="r_5" depart="939" color= "1,0,0"/>
    <vehicle id="NS_941" type="car" route="r_10" depart="941" color="0,1,0"/>
    <vehicle id="NS_942" type="car" route="r_9" depart="942" color="0,1,0"/>
    <vehicle id="SN_943" type="car" route="r_0" depart="943" color="0,0,1"/>
    <vehicle id="SN_948" type="car" route="r_1" depart="948" color="0,0,1"/>
    <vehicle id="NS_949" type="car" route="r_11" depart="949" color="0,1,0"/>
    <vehicle id="EW_954" type="car" route="r_4" depart="954" color= "1,0,0"/>
    <vehicle id="NS_955" type="car" route="r_11" depart="955" color="0,1,0"/>
    <vehicle id="NS_958" type="car" route="r_9" depart="958" color="0,1,0"/>
    <vehicle id="EW_962" type="car" route="r_5" depart="962" color= "1,0,0"/>
    <vehicle id="WE_964" type="car" route="r_8" depart="964" />
    <vehicle id="NS_969" type="car" route="r_11" depart="969" color="0,1,0"/>
    <vehicle id="EW_970" type="car" route="r_3" depart="970" color= "1,0,0"/>
    <vehicle id="NS_970" type="car" route="r_11" depart="970" color="0,1,0"/>
    <vehicle id="NS_972" type="car" route="r_9" depart="972" color="0,1,0"/>
    <vehicle id="WE_975" type="car" route="r_7" depart="975" />
    <vehicle id="EW_975" type="car" route="r_3" depart="975" color= "1,0,0"/>
    <vehicle id="NS_983" type="car" route="r_9" depart="983" color="0,1,0"/>
    <vehicle id="NS_988" type="car" route="r_10" depart="988" color="0,1,0"/>
    <vehicle id="WE_990" type="car" route="r_8" depart="990" />
    <vehicle id="SN_990" type="truck" route="r_2" depart="990" color="0,0,1"/>
    <vehicle id="NS_995" type="car" route="r_9" depart="995" color="0,1,0"/>
    <vehicle id="WE_1002" type="car" route="r_6" depart="1002" />
    <vehicle id="NS_1002" type="car" route="r_9" depart="1002" color="0,1,0"/>
    <vehicle id="SN_1008" type="car" route="r_1" depart="1008" color="0,0,1"/>
    <vehicle id="WE_1012" type="car" route="r_6" depart="1012" />
    <vehicle id="SN_1013" type="car" route="r_0" depart="1013" color="0,0,1"/>
    <vehicle id="EW_1018" type="car" route="r_4" depart="1018" color= "1,0,0"/>
    <vehicle id="WE_1019" type="car" route="r_7" depart="1019" />
    <vehicle id="EW_1035" type="car" route="r_4" depart="1035" color= "1,0,0"/>
    <vehicle id="WE_1038" type="car" route="r_8" depart="1038" />
    <vehicle id="NS_1040" type="car" route="r_9" depart="1040" color="0,1,0"/>
    <vehicle id="NS_1041" type="car" route="r_9" depart="1041" color="0,1,0"/>
    <vehicle id="NS_1043" type="car" route="r_9" depart="1043" color="0,1,0"/>
    <vehicle id="EW_1044" type="car" route="r_4" depart="1044" color= "1,0,0"/>
    <vehicle id="WE_1045" type="car" route="r_7" depart="1045" />
    <vehicle id="WE_1052" type="car" route="r_8" depart="1052" />
    <vehicle id="WE_1056" type="truck" route="r_6" depart="1056" />
    <vehicle id="SN_1056" type="car" route="r_0" depart="1056" color="0,0,1"/>
    <vehicle id="NS_1066" type="car" route="r_10" depart="1066" color="0,1,0"/>
    <vehicle id="WE_1071" type="car" route="r_6" depart="1071" />
    <vehicle id="WE_1073" type="car" route="r_7" depart="1073" />
    <vehicle id="SN_1077" type="car" route="r_1" depart="1077" color="0,0,1"/>
    <vehicle id="EW_1081" type="car" route="r_4" depart="1081" color= "1,0,0"/>
    <vehicle id="SN_1085" type="car" route="r_2" depart="1085" color="0,0,1"/>
    <vehicle id="SN_1088" type="car" route="r_1" depart="1088" color="0,0,1"/>
    <vehicle id="EW_1090" type="truck" route="r_3" depart="1090" color= "1,0,0"/>
    <vehicle id="WE_1091" type="truck" route="r_8" depart="1091" />
    <vehicle id="NS_1091" type="car" route="r_10" depart="1091" color="0,1,0"/>
    <vehicle id="EW_1092" type="car" route="r_5" depart="1092" color= "1,0,0"/>
    <vehicle id="NS_1093" type="car" route="r_10" depart="1093" color="0,1,0"/>
    <vehicle id="EW_1099" type="car" route="r_3" depart="1099" color= "1,0,0"/>
    <vehicle id="EW_1105" type="car" route="r_4" depart="1105" color= "1,0,0"/>
    <vehicle id="WE_1107" type="car" route="r_6" depart="1107" />
    <vehicle id="SN_1111" type="truck" route="r_2" depart="1111" color="0,0,1"/>
    <vehicle id="EW_1113" type="car" route="r_5" depart="1113" color= "1,0,0"/>
    <vehicle id="SN_1115" type="car" route="r_1" depart="1115" color="0,0,1"/>
    <vehicle id="WE_1116" type="truck" route="r_7" depart="1116" />
    <vehicle id="WE_1122" type="car" route="r_6" depart="1122" />
    <vehicle id="SN_1127" type="car" route="r_2" depart="1127" color="0,0,1"/>
    <vehicle id="EW_1138" type="car" route="r_3" depart="1138" color= "1,0,0"/>